REMARK  Name = ../refined-set-2016/4ozj/4ozj_pocket.pdb
REMARK  199 active torsions:
REMARK  status: ('A' for Active; 'I' for Inactive)
REMARK    1  A    between atoms: _1  and  _3
REMARK    2  A    between atoms: _3  and  _4
REMARK    3  A    between atoms: _3  and  _6
REMARK    4  A    between atoms: _6  and  _7
REMARK    5  A    between atoms: _7  and  _8
REMARK    6  A    between atoms: _10  and  _12
REMARK    7  A    between atoms: _12  and  _13
REMARK    8  A    between atoms: _16  and  _18
REMARK    9  A    between atoms: _18  and  _19
REMARK   10  A    between atoms: _18  and  _21
REMARK   11  A    between atoms: _21  and  _22
REMARK   12  A    between atoms: _25  and  _27
REMARK   13  A    between atoms: _27  and  _28
REMARK   14  A    between atoms: _27  and  _30
REMARK   15  A    between atoms: _30  and  _31
REMARK   16  A    between atoms: _34  and  _36
REMARK   17  A    between atoms: _36  and  _37
REMARK   18  A    between atoms: _36  and  _39
REMARK   19  A    between atoms: _39  and  _40
REMARK   20  A    between atoms: _40  and  _41
REMARK   21  A    between atoms: _41  and  _42
REMARK   22  A    between atoms: _51  and  _53
REMARK   23  A    between atoms: _53  and  _54
REMARK   24  A    between atoms: _53  and  _56
REMARK   25  A    between atoms: _59  and  _61
REMARK   26  A    between atoms: _61  and  _62
REMARK   27  A    between atoms: _61  and  _64
REMARK   28  A    between atoms: _64  and  _65
REMARK   29  A    between atoms: _67  and  _69
REMARK   30  A    between atoms: _69  and  _70
REMARK   31  A    between atoms: _72  and  _74
REMARK   32  A    between atoms: _74  and  _75
REMARK   33  A    between atoms: _74  and  _77
REMARK   34  A    between atoms: _77  and  _78
REMARK   35  A    between atoms: _78  and  _79
REMARK   36  A    between atoms: _79  and  _80
REMARK   37  A    between atoms: _89  and  _91
REMARK   38  A    between atoms: _91  and  _92
REMARK   39  A    between atoms: _94  and  _96
REMARK   40  A    between atoms: _96  and  _97
REMARK   41  A    between atoms: _96  and  _99
REMARK   42  A    between atoms: _99  and  _100
REMARK   43  A    between atoms: _102  and  _104
REMARK   44  A    between atoms: _104  and  _105
REMARK   45  A    between atoms: _104  and  _107
REMARK   46  A    between atoms: _107  and  _108
REMARK   47  A    between atoms: _111  and  _113
REMARK   48  A    between atoms: _113  and  _114
REMARK   49  A    between atoms: _113  and  _116
REMARK   50  A    between atoms: _116  and  _117
REMARK   51  A    between atoms: _120  and  _122
REMARK   52  A    between atoms: _122  and  _123
REMARK   53  A    between atoms: _122  and  _125
REMARK   54  A    between atoms: _125  and  _126
REMARK   55  A    between atoms: _131  and  _133
REMARK   56  A    between atoms: _133  and  _134
REMARK   57  A    between atoms: _133  and  _136
REMARK   58  A    between atoms: _136  and  _137
REMARK   59  A    between atoms: _137  and  _138
REMARK   60  A    between atoms: _143  and  _145
REMARK   61  A    between atoms: _145  and  _146
REMARK   62  A    between atoms: _145  and  _148
REMARK   63  A    between atoms: _148  and  _149
REMARK   64  A    between atoms: _149  and  _150
REMARK   65  A    between atoms: _150  and  _151
REMARK   66  A    between atoms: _151  and  _152
REMARK   67  A    between atoms: _156  and  _158
REMARK   68  A    between atoms: _158  and  _159
REMARK   69  A    between atoms: _158  and  _161
REMARK   70  A    between atoms: _164  and  _166
REMARK   71  A    between atoms: _166  and  _167
REMARK   72  A    between atoms: _166  and  _169
REMARK   73  A    between atoms: _169  and  _170
REMARK   74  A    between atoms: _170  and  _171
REMARK   75  A    between atoms: _171  and  _172
REMARK   76  A    between atoms: _172  and  _173
REMARK   77  A    between atoms: _177  and  _179
REMARK   78  A    between atoms: _179  and  _180
REMARK   79  A    between atoms: _179  and  _182
REMARK   80  A    between atoms: _182  and  _183
REMARK   81  A    between atoms: _186  and  _188
REMARK   82  A    between atoms: _188  and  _189
REMARK   83  A    between atoms: _188  and  _191
REMARK   84  A    between atoms: _191  and  _192
REMARK   85  A    between atoms: _192  and  _193
REMARK   86  A    between atoms: _196  and  _198
REMARK   87  A    between atoms: _198  and  _199
REMARK   88  A    between atoms: _198  and  _201
REMARK   89  A    between atoms: _201  and  _202
REMARK   90  A    between atoms: _202  and  _203
REMARK   91  A    between atoms: _203  and  _204
REMARK   92  A    between atoms: _204  and  _205
REMARK   93  A    between atoms: _209  and  _211
REMARK   94  A    between atoms: _211  and  _212
REMARK   95  A    between atoms: _214  and  _216
REMARK   96  A    between atoms: _216  and  _217
REMARK   97  A    between atoms: _216  and  _219
REMARK   98  A    between atoms: _219  and  _220
REMARK   99  A    between atoms: _223  and  _225
REMARK  100  A    between atoms: _225  and  _226
REMARK  101  A    between atoms: _228  and  _230
REMARK  102  A    between atoms: _230  and  _231
REMARK  103  A    between atoms: _230  and  _233
REMARK  104  A    between atoms: _233  and  _234
REMARK  105  A    between atoms: _234  and  _235
REMARK  106  A    between atoms: _235  and  _236
REMARK  107  A    between atoms: _236  and  _237
REMARK  108  A    between atoms: _241  and  _243
REMARK  109  A    between atoms: _243  and  _244
REMARK  110  A    between atoms: _243  and  _246
REMARK  111  A    between atoms: _246  and  _247
REMARK  112  A    between atoms: _250  and  _252
REMARK  113  A    between atoms: _252  and  _253
REMARK  114  A    between atoms: _252  and  _255
REMARK  115  A    between atoms: _255  and  _256
REMARK  116  A    between atoms: _262  and  _264
REMARK  117  A    between atoms: _264  and  _265
REMARK  118  A    between atoms: _264  and  _267
REMARK  119  A    between atoms: _267  and  _268
REMARK  120  A    between atoms: _271  and  _273
REMARK  121  A    between atoms: _273  and  _274
REMARK  122  A    between atoms: _273  and  _276
REMARK  123  A    between atoms: _276  and  _277
REMARK  124  A    between atoms: _277  and  _278
REMARK  125  A    between atoms: _278  and  _279
REMARK  126  A    between atoms: _279  and  _280
REMARK  127  A    between atoms: _284  and  _286
REMARK  128  A    between atoms: _286  and  _287
REMARK  129  A    between atoms: _286  and  _289
REMARK  130  A    between atoms: _289  and  _290
REMARK  131  A    between atoms: _293  and  _295
REMARK  132  A    between atoms: _295  and  _296
REMARK  133  A    between atoms: _295  and  _298
REMARK  134  A    between atoms: _301  and  _303
REMARK  135  A    between atoms: _303  and  _304
REMARK  136  A    between atoms: _308  and  _309
REMARK  137  A    between atoms: _314  and  _316
REMARK  138  A    between atoms: _316  and  _317
REMARK  139  A    between atoms: _316  and  _319
REMARK  140  A    between atoms: _319  and  _320
REMARK  141  A    between atoms: _322  and  _324
REMARK  142  A    between atoms: _324  and  _325
REMARK  143  A    between atoms: _324  and  _327
REMARK  144  A    between atoms: _327  and  _328
REMARK  145  A    between atoms: _331  and  _333
REMARK  146  A    between atoms: _333  and  _334
REMARK  147  A    between atoms: _333  and  _336
REMARK  148  A    between atoms: _336  and  _337
REMARK  149  A    between atoms: _340  and  _342
REMARK  150  A    between atoms: _342  and  _343
REMARK  151  A    between atoms: _342  and  _345
REMARK  152  A    between atoms: _348  and  _350
REMARK  153  A    between atoms: _350  and  _351
REMARK  154  A    between atoms: _350  and  _353
REMARK  155  A    between atoms: _356  and  _358
REMARK  156  A    between atoms: _358  and  _359
REMARK  157  A    between atoms: _358  and  _361
REMARK  158  A    between atoms: _361  and  _362
REMARK  159  A    between atoms: _362  and  _363
REMARK  160  A    between atoms: _366  and  _368
REMARK  161  A    between atoms: _368  and  _369
REMARK  162  A    between atoms: _368  and  _371
REMARK  163  A    between atoms: _373  and  _375
REMARK  164  A    between atoms: _375  and  _376
REMARK  165  A    between atoms: _375  and  _378
REMARK  166  A    between atoms: _381  and  _383
REMARK  167  A    between atoms: _383  and  _384
REMARK  168  A    between atoms: _383  and  _386
REMARK  169  A    between atoms: _389  and  _391
REMARK  170  A    between atoms: _391  and  _392
REMARK  171  A    between atoms: _395  and  _397
REMARK  172  A    between atoms: _397  and  _398
REMARK  173  A    between atoms: _401  and  _403
REMARK  174  A    between atoms: _403  and  _404
REMARK  175  A    between atoms: _403  and  _406
REMARK  176  A    between atoms: _406  and  _407
REMARK  177  A    between atoms: _410  and  _412
REMARK  178  A    between atoms: _412  and  _413
REMARK  179  A    between atoms: _412  and  _415
REMARK  180  A    between atoms: _415  and  _416
REMARK  181  A    between atoms: _416  and  _417
REMARK  182  A    between atoms: _422  and  _424
REMARK  183  A    between atoms: _424  and  _425
REMARK  184  A    between atoms: _424  and  _427
REMARK  185  A    between atoms: _430  and  _432
REMARK  186  A    between atoms: _432  and  _433
REMARK  187  A    between atoms: _432  and  _435
REMARK  188  A    between atoms: _435  and  _436
REMARK  189  A    between atoms: _436  and  _437
REMARK  190  A    between atoms: _437  and  _438
REMARK  191  A    between atoms: _447  and  _449
REMARK  192  A    between atoms: _449  and  _450
REMARK  193  A    between atoms: _449  and  _452
REMARK  194  A    between atoms: _452  and  _453
REMARK  195  A    between atoms: _456  and  _458
REMARK  196  A    between atoms: _458  and  _459
REMARK  197  A    between atoms: _462  and  _464
REMARK  198  A    between atoms: _464  and  _465
REMARK  199  A    between atoms: _464  and  _467
REMARK                            x       y       z     vdW  Elec       q    Type
REMARK                         _______ _______ _______ _____ _____    ______ ____
ROOT
ATOM      1  C   ILE A   3     -10.053   6.757  10.636  0.00  0.00    +0.241 C 
ATOM      2  O   ILE A   3     -11.077   6.931  11.307  0.00  0.00    -0.273 OA
ATOM      3  N   ILE A   4      -9.830   7.334   9.465  0.00  0.00    -0.297 N 
ATOM      4  H   ILE A   4      -9.014   7.027   8.899  0.00  0.00    +0.150 HD
ENDROOT
BRANCH   1   5
ATOM      5  CA  ILE A   3      -8.965   5.850  11.154  0.00  0.00    +0.149 C 
BRANCH   5   7
ATOM      6  C   ALA A   2      -7.391   6.938  12.624  0.00  0.00    +0.241 C 
ATOM      7  N   ILE A   3      -8.581   6.366  12.447  0.00  0.00    -0.297 N 
ATOM      8  H   ILE A   3      -9.240   6.290  13.248  0.00  0.00    +0.150 HD
ATOM      9  O   ALA A   2      -6.485   6.847  11.800  0.00  0.00    -0.273 OA
BRANCH   6  10
ATOM     10  CA  ALA A   2      -7.161   7.655  13.933  0.00  0.00    +0.149 C 
ATOM     11  CB  ALA A   2      -7.240   9.157  13.703  0.00  0.00    +0.031 C 
BRANCH  10  14
ATOM     12  C   MET A   1      -5.698   6.712  15.655  0.00  0.00    +0.238 C 
ATOM     13  O   MET A   1      -6.646   6.349  16.351  0.00  0.00    -0.274 OA
ATOM     14  N   ALA A   2      -5.847   7.308  14.481  0.00  0.00    -0.297 N 
ATOM     15  H   ALA A   2      -4.998   7.539  13.927  0.00  0.00    +0.150 HD
BRANCH  12  16
ATOM     16  CA  MET A   1      -4.278   6.478  16.128  0.00  0.00    +0.146 C 
BRANCH  16  17
ATOM     17  N   MET A   1      -4.067   7.219  17.358  0.00  0.00    -0.238 NA
ATOM     18  H   MET A   1      -4.665   6.991  18.178  0.00  0.00    +0.142 HD
ENDBRANCH  16  17
BRANCH  16  19
ATOM     19  CB  MET A   1      -4.082   4.983  16.394  0.00  0.00    +0.038 C 
BRANCH  19  20
ATOM     20  CG  MET A   1      -4.350   4.082  15.211  0.00  0.00    +0.060 C 
BRANCH  20  21
ATOM     21  SD  MET A   1      -4.398   2.325  15.665  0.00  0.00    -0.139 S 
ATOM     22  CE  MET A   1      -2.757   2.106  16.339  0.00  0.00    +0.069 C 
ENDBRANCH  20  21
ENDBRANCH  19  20
ENDBRANCH  16  19
ENDBRANCH  12  16
ENDBRANCH  10  14
ENDBRANCH   6  10
ENDBRANCH   5   7
BRANCH   5  23
ATOM     23  CB  ILE A   3      -9.455   4.392  11.187  0.00  0.00    +0.027 C 
ATOM     24  CG2 ILE A   3      -9.803   3.940   9.776  0.00  0.00    +0.002 C 
BRANCH  23  25
ATOM     25  CG1 ILE A   3      -8.408   3.476  11.811  0.00  0.00    +0.002 C 
ATOM     26  CD1 ILE A   3      -8.549   3.337  13.297  0.00  0.00    +0.000 C 
ENDBRANCH  23  25
ENDBRANCH   5  23
ENDBRANCH   1   5
BRANCH   3  27
ATOM     27  CA  ILE A   4     -10.701   8.394   8.943  0.00  0.00    +0.149 C 
BRANCH  27  28
ATOM     28  C   ILE A   4     -10.927   8.211   7.454  0.00  0.00    +0.241 C 
ATOM     29  N   ARG A   5     -11.841   8.990   6.889  0.00  0.00    -0.298 N 
ATOM     30  H   ARG A   5     -12.417   9.609   7.494  0.00  0.00    +0.150 HD
ATOM     31  O   ILE A   4     -10.291   7.368   6.819  0.00  0.00    -0.273 OA
BRANCH  29  32
ATOM     32  CA  ARG A   5     -12.063   9.006   5.452  0.00  0.00    +0.137 C 
BRANCH  32  33
ATOM     33  C   ARG A   5     -10.861   9.590   4.720  0.00  0.00    +0.227 C 
ATOM     34  O   ARG A   5     -10.308  10.608   5.167  0.00  0.00    -0.286 OA
ENDBRANCH  32  33
BRANCH  32  35
ATOM     35  CB  ARG A   5     -13.277   9.882   5.120  0.00  0.00    +0.031 C 
BRANCH  35  36
ATOM     36  CG  ARG A   5     -14.566   9.377   5.715  0.00  0.00    +0.045 C 
BRANCH  36  37
ATOM     37  CD  ARG A   5     -15.694  10.386   5.510  0.00  0.00    +0.174 C 
BRANCH  37  38
ATOM     38  NE  ARG A   5     -16.912   9.968   6.195  0.00  0.00    -0.265 N 
ATOM     39  HE  ARG A   5     -17.141  10.445   7.090  0.00  0.00    +0.259 HD
ATOM     40  CZ  ARG A   5     -17.755   9.031   5.775  0.00  0.00    +0.342 C 
ATOM     41  NH2 ARG A   5     -18.828   8.760   6.510  0.00  0.00    -0.292 N 
ATOM     42 HH21 ARG A   5     -18.996   9.278   7.396  0.00  0.00    +0.255 HD
ATOM     43 HH22 ARG A   5     -19.500   8.030   6.199  0.00  0.00    +0.255 HD
ATOM     44  NH1 ARG A   5     -17.561   8.384   4.635  0.00  0.00    -0.292 N 
ATOM     45 HH11 ARG A   5     -18.237   7.655   4.329  0.00  0.00    +0.255 HD
ATOM     46 HH12 ARG A   5     -16.733   8.605   4.046  0.00  0.00    +0.255 HD
ENDBRANCH  37  38
ENDBRANCH  36  37
ENDBRANCH  35  36
ENDBRANCH  32  35
ENDBRANCH  29  32
ENDBRANCH  27  28
BRANCH  27  47
ATOM     47  CB  ILE A   4     -10.094   9.798   9.180  0.00  0.00    +0.027 C 
ATOM     48  CG2 ILE A   4      -9.928  10.050  10.659  0.00  0.00    +0.002 C 
BRANCH  47  49
ATOM     49  CG1 ILE A   4      -8.771   9.921   8.416  0.00  0.00    +0.002 C 
ATOM     50  CD1 ILE A   4      -8.103  11.279   8.469  0.00  0.00    +0.000 C 
ENDBRANCH  47  49
ENDBRANCH  27  47
ENDBRANCH   3  27
TORSDOF 21
REMARK  Name = ../refined-set-2016/4ozj/4ozj_pocket.pdb
REMARK  199 active torsions:
REMARK  status: ('A' for Active; 'I' for Inactive)
REMARK    1  A    between atoms: _1  and  _3
REMARK    2  A    between atoms: _3  and  _4
REMARK    3  A    between atoms: _3  and  _6
REMARK    4  A    between atoms: _6  and  _7
REMARK    5  A    between atoms: _7  and  _8
REMARK    6  A    between atoms: _10  and  _12
REMARK    7  A    between atoms: _12  and  _13
REMARK    8  A    between atoms: _16  and  _18
REMARK    9  A    between atoms: _18  and  _19
REMARK   10  A    between atoms: _18  and  _21
REMARK   11  A    between atoms: _21  and  _22
REMARK   12  A    between atoms: _25  and  _27
REMARK   13  A    between atoms: _27  and  _28
REMARK   14  A    between atoms: _27  and  _30
REMARK   15  A    between atoms: _30  and  _31
REMARK   16  A    between atoms: _34  and  _36
REMARK   17  A    between atoms: _36  and  _37
REMARK   18  A    between atoms: _36  and  _39
REMARK   19  A    between atoms: _39  and  _40
REMARK   20  A    between atoms: _40  and  _41
REMARK   21  A    between atoms: _41  and  _42
REMARK   22  A    between atoms: _51  and  _53
REMARK   23  A    between atoms: _53  and  _54
REMARK   24  A    between atoms: _53  and  _56
REMARK   25  A    between atoms: _59  and  _61
REMARK   26  A    between atoms: _61  and  _62
REMARK   27  A    between atoms: _61  and  _64
REMARK   28  A    between atoms: _64  and  _65
REMARK   29  A    between atoms: _67  and  _69
REMARK   30  A    between atoms: _69  and  _70
REMARK   31  A    between atoms: _72  and  _74
REMARK   32  A    between atoms: _74  and  _75
REMARK   33  A    between atoms: _74  and  _77
REMARK   34  A    between atoms: _77  and  _78
REMARK   35  A    between atoms: _78  and  _79
REMARK   36  A    between atoms: _79  and  _80
REMARK   37  A    between atoms: _89  and  _91
REMARK   38  A    between atoms: _91  and  _92
REMARK   39  A    between atoms: _94  and  _96
REMARK   40  A    between atoms: _96  and  _97
REMARK   41  A    between atoms: _96  and  _99
REMARK   42  A    between atoms: _99  and  _100
REMARK   43  A    between atoms: _102  and  _104
REMARK   44  A    between atoms: _104  and  _105
REMARK   45  A    between atoms: _104  and  _107
REMARK   46  A    between atoms: _107  and  _108
REMARK   47  A    between atoms: _111  and  _113
REMARK   48  A    between atoms: _113  and  _114
REMARK   49  A    between atoms: _113  and  _116
REMARK   50  A    between atoms: _116  and  _117
REMARK   51  A    between atoms: _120  and  _122
REMARK   52  A    between atoms: _122  and  _123
REMARK   53  A    between atoms: _122  and  _125
REMARK   54  A    between atoms: _125  and  _126
REMARK   55  A    between atoms: _131  and  _133
REMARK   56  A    between atoms: _133  and  _134
REMARK   57  A    between atoms: _133  and  _136
REMARK   58  A    between atoms: _136  and  _137
REMARK   59  A    between atoms: _137  and  _138
REMARK   60  A    between atoms: _143  and  _145
REMARK   61  A    between atoms: _145  and  _146
REMARK   62  A    between atoms: _145  and  _148
REMARK   63  A    between atoms: _148  and  _149
REMARK   64  A    between atoms: _149  and  _150
REMARK   65  A    between atoms: _150  and  _151
REMARK   66  A    between atoms: _151  and  _152
REMARK   67  A    between atoms: _156  and  _158
REMARK   68  A    between atoms: _158  and  _159
REMARK   69  A    between atoms: _158  and  _161
REMARK   70  A    between atoms: _164  and  _166
REMARK   71  A    between atoms: _166  and  _167
REMARK   72  A    between atoms: _166  and  _169
REMARK   73  A    between atoms: _169  and  _170
REMARK   74  A    between atoms: _170  and  _171
REMARK   75  A    between atoms: _171  and  _172
REMARK   76  A    between atoms: _172  and  _173
REMARK   77  A    between atoms: _177  and  _179
REMARK   78  A    between atoms: _179  and  _180
REMARK   79  A    between atoms: _179  and  _182
REMARK   80  A    between atoms: _182  and  _183
REMARK   81  A    between atoms: _186  and  _188
REMARK   82  A    between atoms: _188  and  _189
REMARK   83  A    between atoms: _188  and  _191
REMARK   84  A    between atoms: _191  and  _192
REMARK   85  A    between atoms: _192  and  _193
REMARK   86  A    between atoms: _196  and  _198
REMARK   87  A    between atoms: _198  and  _199
REMARK   88  A    between atoms: _198  and  _201
REMARK   89  A    between atoms: _201  and  _202
REMARK   90  A    between atoms: _202  and  _203
REMARK   91  A    between atoms: _203  and  _204
REMARK   92  A    between atoms: _204  and  _205
REMARK   93  A    between atoms: _209  and  _211
REMARK   94  A    between atoms: _211  and  _212
REMARK   95  A    between atoms: _214  and  _216
REMARK   96  A    between atoms: _216  and  _217
REMARK   97  A    between atoms: _216  and  _219
REMARK   98  A    between atoms: _219  and  _220
REMARK   99  A    between atoms: _223  and  _225
REMARK  100  A    between atoms: _225  and  _226
REMARK  101  A    between atoms: _228  and  _230
REMARK  102  A    between atoms: _230  and  _231
REMARK  103  A    between atoms: _230  and  _233
REMARK  104  A    between atoms: _233  and  _234
REMARK  105  A    between atoms: _234  and  _235
REMARK  106  A    between atoms: _235  and  _236
REMARK  107  A    between atoms: _236  and  _237
REMARK  108  A    between atoms: _241  and  _243
REMARK  109  A    between atoms: _243  and  _244
REMARK  110  A    between atoms: _243  and  _246
REMARK  111  A    between atoms: _246  and  _247
REMARK  112  A    between atoms: _250  and  _252
REMARK  113  A    between atoms: _252  and  _253
REMARK  114  A    between atoms: _252  and  _255
REMARK  115  A    between atoms: _255  and  _256
REMARK  116  A    between atoms: _262  and  _264
REMARK  117  A    between atoms: _264  and  _265
REMARK  118  A    between atoms: _264  and  _267
REMARK  119  A    between atoms: _267  and  _268
REMARK  120  A    between atoms: _271  and  _273
REMARK  121  A    between atoms: _273  and  _274
REMARK  122  A    between atoms: _273  and  _276
REMARK  123  A    between atoms: _276  and  _277
REMARK  124  A    between atoms: _277  and  _278
REMARK  125  A    between atoms: _278  and  _279
REMARK  126  A    between atoms: _279  and  _280
REMARK  127  A    between atoms: _284  and  _286
REMARK  128  A    between atoms: _286  and  _287
REMARK  129  A    between atoms: _286  and  _289
REMARK  130  A    between atoms: _289  and  _290
REMARK  131  A    between atoms: _293  and  _295
REMARK  132  A    between atoms: _295  and  _296
REMARK  133  A    between atoms: _295  and  _298
REMARK  134  A    between atoms: _301  and  _303
REMARK  135  A    between atoms: _303  and  _304
REMARK  136  A    between atoms: _308  and  _309
REMARK  137  A    between atoms: _314  and  _316
REMARK  138  A    between atoms: _316  and  _317
REMARK  139  A    between atoms: _316  and  _319
REMARK  140  A    between atoms: _319  and  _320
REMARK  141  A    between atoms: _322  and  _324
REMARK  142  A    between atoms: _324  and  _325
REMARK  143  A    between atoms: _324  and  _327
REMARK  144  A    between atoms: _327  and  _328
REMARK  145  A    between atoms: _331  and  _333
REMARK  146  A    between atoms: _333  and  _334
REMARK  147  A    between atoms: _333  and  _336
REMARK  148  A    between atoms: _336  and  _337
REMARK  149  A    between atoms: _340  and  _342
REMARK  150  A    between atoms: _342  and  _343
REMARK  151  A    between atoms: _342  and  _345
REMARK  152  A    between atoms: _348  and  _350
REMARK  153  A    between atoms: _350  and  _351
REMARK  154  A    between atoms: _350  and  _353
REMARK  155  A    between atoms: _356  and  _358
REMARK  156  A    between atoms: _358  and  _359
REMARK  157  A    between atoms: _358  and  _361
REMARK  158  A    between atoms: _361  and  _362
REMARK  159  A    between atoms: _362  and  _363
REMARK  160  A    between atoms: _366  and  _368
REMARK  161  A    between atoms: _368  and  _369
REMARK  162  A    between atoms: _368  and  _371
REMARK  163  A    between atoms: _373  and  _375
REMARK  164  A    between atoms: _375  and  _376
REMARK  165  A    between atoms: _375  and  _378
REMARK  166  A    between atoms: _381  and  _383
REMARK  167  A    between atoms: _383  and  _384
REMARK  168  A    between atoms: _383  and  _386
REMARK  169  A    between atoms: _389  and  _391
REMARK  170  A    between atoms: _391  and  _392
REMARK  171  A    between atoms: _395  and  _397
REMARK  172  A    between atoms: _397  and  _398
REMARK  173  A    between atoms: _401  and  _403
REMARK  174  A    between atoms: _403  and  _404
REMARK  175  A    between atoms: _403  and  _406
REMARK  176  A    between atoms: _406  and  _407
REMARK  177  A    between atoms: _410  and  _412
REMARK  178  A    between atoms: _412  and  _413
REMARK  179  A    between atoms: _412  and  _415
REMARK  180  A    between atoms: _415  and  _416
REMARK  181  A    between atoms: _416  and  _417
REMARK  182  A    between atoms: _422  and  _424
REMARK  183  A    between atoms: _424  and  _425
REMARK  184  A    between atoms: _424  and  _427
REMARK  185  A    between atoms: _430  and  _432
REMARK  186  A    between atoms: _432  and  _433
REMARK  187  A    between atoms: _432  and  _435
REMARK  188  A    between atoms: _435  and  _436
REMARK  189  A    between atoms: _436  and  _437
REMARK  190  A    between atoms: _437  and  _438
REMARK  191  A    between atoms: _447  and  _449
REMARK  192  A    between atoms: _449  and  _450
REMARK  193  A    between atoms: _449  and  _452
REMARK  194  A    between atoms: _452  and  _453
REMARK  195  A    between atoms: _456  and  _458
REMARK  196  A    between atoms: _458  and  _459
REMARK  197  A    between atoms: _462  and  _464
REMARK  198  A    between atoms: _464  and  _465
REMARK  199  A    between atoms: _464  and  _467
REMARK                            x       y       z     vdW  Elec       q    Type
REMARK                         _______ _______ _______ _____ _____    ______ ____
ROOT
ATOM      1  CA  ARG A   4     -15.602  -1.937   8.010  0.00  0.00    +0.149 C 
ENDROOT
BRANCH   1   3
ATOM      2  C   GLY A   3     -13.562  -1.534   6.751  0.00  0.00    +0.243 C 
ATOM      3  N   ARG A   4     -14.165  -2.030   7.813  0.00  0.00    -0.297 N 
ATOM      4  H   ARG A   4     -13.591  -2.506   8.538  0.00  0.00    +0.150 HD
ATOM      5  O   GLY A   3     -14.138  -1.223   5.709  0.00  0.00    -0.273 OA
BRANCH   2   6
ATOM      6  CA  GLY A   3     -12.063  -1.426   6.879  0.00  0.00    +0.176 C 
BRANCH   6   9
ATOM      7  C   SER A   2     -10.071  -1.237   5.619  0.00  0.00    +0.243 C 
ATOM      8  O   SER A   2      -9.461  -1.755   6.546  0.00  0.00    -0.273 OA
ATOM      9  N   GLY A   3     -11.377  -1.046   5.669  0.00  0.00    -0.295 N 
ATOM     10  H   GLY A   3     -11.892  -0.636   4.864  0.00  0.00    +0.150 HD
BRANCH   7  11
ATOM     11  CA  SER A   2      -9.329  -0.837   4.349  0.00  0.00    +0.178 C 
BRANCH  11  13
ATOM     12  C   VAL A   1      -7.350   0.642   4.381  0.00  0.00    +0.238 C 
ATOM     13  N   SER A   2      -7.968  -0.476   4.741  0.00  0.00    -0.295 N 
ATOM     14  H   SER A   2      -7.447  -1.143   5.345  0.00  0.00    +0.150 HD
ATOM     15  O   VAL A   1      -7.819   1.428   3.580  0.00  0.00    -0.274 OA
BRANCH  12  16
ATOM     16  CA  VAL A   1      -5.969   0.851   4.979  0.00  0.00    +0.145 C 
BRANCH  16  17
ATOM     17  CB  VAL A   1      -6.034   0.935   6.517  0.00  0.00    +0.025 C 
ATOM     18  CG2 VAL A   1      -4.646   1.159   7.123  0.00  0.00    +0.002 C 
ATOM     19  CG1 VAL A   1      -6.980   2.060   6.953  0.00  0.00    +0.002 C 
ENDBRANCH  16  17
BRANCH  16  20
ATOM     20  N   VAL A   1      -5.344   2.058   4.404  0.00  0.00    -0.238 NA
ATOM     21  H   VAL A   1      -5.932   2.906   4.275  0.00  0.00    +0.142 HD
ENDBRANCH  16  20
ENDBRANCH  12  16
ENDBRANCH  11  13
BRANCH  11  22
ATOM     22  CB  SER A   2      -9.290  -2.020   3.378  0.00  0.00    +0.166 C 
BRANCH  22  23
ATOM     23  OG  SER A   2      -8.478  -1.749   2.241  0.00  0.00    -0.380 OA
ATOM     24  H   SER A   2      -7.552  -1.559   2.536  0.00  0.00    +0.211 HD
ENDBRANCH  22  23
ENDBRANCH  11  22
ENDBRANCH   7  11
ENDBRANCH   6   9
ENDBRANCH   2   6
ENDBRANCH   1   3
BRANCH   1  25
ATOM     25  C   ARG A   4     -15.863  -1.676   9.475  0.00  0.00    +0.241 C 
ATOM     26  O   ARG A   4     -15.048  -1.980  10.333  0.00  0.00    -0.273 OA
ATOM     27  N   GLY A   5     -17.023  -1.083   9.765  0.00  0.00    -0.295 N 
ATOM     28  H   GLY A   5     -17.642  -0.773   8.989  0.00  0.00    +0.150 HD
BRANCH  27  29
ATOM     29  CA  GLY A   5     -17.443  -0.860  11.142  0.00  0.00    +0.176 C 
BRANCH  29  30
ATOM     30  C   GLY A   5     -18.548  -1.851  11.500  0.00  0.00    +0.243 C 
ATOM     31  N   SER A   6     -19.579  -1.352  12.181  0.00  0.00    -0.296 N 
ATOM     32  H   SER A   6     -19.542  -0.353  12.467  0.00  0.00    +0.150 HD
ATOM     33  O   GLY A   5     -18.462  -3.042  11.160  0.00  0.00    -0.273 OA
BRANCH  31  34
ATOM     34  CA  SER A   6     -20.766  -2.137  12.550  0.00  0.00    +0.166 C 
BRANCH  34  35
ATOM     35  C   SER A   6     -21.833  -2.148  11.437  0.00  0.00    +0.229 C 
ATOM     36  O   SER A   6     -22.950  -2.637  11.649  0.00  0.00    -0.286 OA
ENDBRANCH  34  35
BRANCH  34  37
ATOM     37  CB  SER A   6     -21.388  -1.558  13.829  0.00  0.00    +0.165 C 
BRANCH  37  38
ATOM     38  OG  SER A   6     -20.443  -1.485  14.881  0.00  0.00    -0.380 OA
ATOM     39  H   SER A   6     -20.877  -1.108  15.687  0.00  0.00    +0.211 HD
ENDBRANCH  37  38
ENDBRANCH  34  37
ENDBRANCH  31  34
ENDBRANCH  29  30
ENDBRANCH  27  29
ENDBRANCH   1  25
BRANCH   1  40
ATOM     40  CB  ARG A   4     -16.329  -3.200   7.540  0.00  0.00    +0.033 C 
BRANCH  40  41
ATOM     41  CG  ARG A   4     -16.038  -4.394   8.416  0.00  0.00    +0.045 C 
BRANCH  41  42
ATOM     42  CD  ARG A   4     -16.801  -5.650   8.035  0.00  0.00    +0.174 C 
BRANCH  42  43
ATOM     43  NE  ARG A   4     -16.416  -6.725   8.938  0.00  0.00    -0.265 N 
ATOM     44  HE  ARG A   4     -15.986  -6.458   9.846  0.00  0.00    +0.259 HD
ATOM     45  CZ  ARG A   4     -16.573  -8.031   8.689  0.00  0.00    +0.342 C 
ATOM     46  NH2 ARG A   4     -16.177  -8.917   9.598  0.00  0.00    -0.292 N 
ATOM     47 HH21 ARG A   4     -15.751  -8.592  10.490  0.00  0.00    +0.255 HD
ATOM     48 HH22 ARG A   4     -16.293  -9.935   9.417  0.00  0.00    +0.255 HD
ATOM     49  NH1 ARG A   4     -17.079  -8.455   7.531  0.00  0.00    -0.292 N 
ATOM     50 HH11 ARG A   4     -17.194  -9.474   7.355  0.00  0.00    +0.255 HD
ATOM     51 HH12 ARG A   4     -17.359  -7.767   6.803  0.00  0.00    +0.255 HD
ENDBRANCH  42  43
ENDBRANCH  41  42
ENDBRANCH  40  41
ENDBRANCH   1  40
TORSDOF 21
REMARK  Name = ../refined-set-2016/4ozj/4ozj_pocket.pdb
REMARK  199 active torsions:
REMARK  status: ('A' for Active; 'I' for Inactive)
REMARK    1  A    between atoms: _1  and  _3
REMARK    2  A    between atoms: _3  and  _4
REMARK    3  A    between atoms: _3  and  _6
REMARK    4  A    between atoms: _6  and  _7
REMARK    5  A    between atoms: _7  and  _8
REMARK    6  A    between atoms: _10  and  _12
REMARK    7  A    between atoms: _12  and  _13
REMARK    8  A    between atoms: _16  and  _18
REMARK    9  A    between atoms: _18  and  _19
REMARK   10  A    between atoms: _18  and  _21
REMARK   11  A    between atoms: _21  and  _22
REMARK   12  A    between atoms: _25  and  _27
REMARK   13  A    between atoms: _27  and  _28
REMARK   14  A    between atoms: _27  and  _30
REMARK   15  A    between atoms: _30  and  _31
REMARK   16  A    between atoms: _34  and  _36
REMARK   17  A    between atoms: _36  and  _37
REMARK   18  A    between atoms: _36  and  _39
REMARK   19  A    between atoms: _39  and  _40
REMARK   20  A    between atoms: _40  and  _41
REMARK   21  A    between atoms: _41  and  _42
REMARK   22  A    between atoms: _51  and  _53
REMARK   23  A    between atoms: _53  and  _54
REMARK   24  A    between atoms: _53  and  _56
REMARK   25  A    between atoms: _59  and  _61
REMARK   26  A    between atoms: _61  and  _62
REMARK   27  A    between atoms: _61  and  _64
REMARK   28  A    between atoms: _64  and  _65
REMARK   29  A    between atoms: _67  and  _69
REMARK   30  A    between atoms: _69  and  _70
REMARK   31  A    between atoms: _72  and  _74
REMARK   32  A    between atoms: _74  and  _75
REMARK   33  A    between atoms: _74  and  _77
REMARK   34  A    between atoms: _77  and  _78
REMARK   35  A    between atoms: _78  and  _79
REMARK   36  A    between atoms: _79  and  _80
REMARK   37  A    between atoms: _89  and  _91
REMARK   38  A    between atoms: _91  and  _92
REMARK   39  A    between atoms: _94  and  _96
REMARK   40  A    between atoms: _96  and  _97
REMARK   41  A    between atoms: _96  and  _99
REMARK   42  A    between atoms: _99  and  _100
REMARK   43  A    between atoms: _102  and  _104
REMARK   44  A    between atoms: _104  and  _105
REMARK   45  A    between atoms: _104  and  _107
REMARK   46  A    between atoms: _107  and  _108
REMARK   47  A    between atoms: _111  and  _113
REMARK   48  A    between atoms: _113  and  _114
REMARK   49  A    between atoms: _113  and  _116
REMARK   50  A    between atoms: _116  and  _117
REMARK   51  A    between atoms: _120  and  _122
REMARK   52  A    between atoms: _122  and  _123
REMARK   53  A    between atoms: _122  and  _125
REMARK   54  A    between atoms: _125  and  _126
REMARK   55  A    between atoms: _131  and  _133
REMARK   56  A    between atoms: _133  and  _134
REMARK   57  A    between atoms: _133  and  _136
REMARK   58  A    between atoms: _136  and  _137
REMARK   59  A    between atoms: _137  and  _138
REMARK   60  A    between atoms: _143  and  _145
REMARK   61  A    between atoms: _145  and  _146
REMARK   62  A    between atoms: _145  and  _148
REMARK   63  A    between atoms: _148  and  _149
REMARK   64  A    between atoms: _149  and  _150
REMARK   65  A    between atoms: _150  and  _151
REMARK   66  A    between atoms: _151  and  _152
REMARK   67  A    between atoms: _156  and  _158
REMARK   68  A    between atoms: _158  and  _159
REMARK   69  A    between atoms: _158  and  _161
REMARK   70  A    between atoms: _164  and  _166
REMARK   71  A    between atoms: _166  and  _167
REMARK   72  A    between atoms: _166  and  _169
REMARK   73  A    between atoms: _169  and  _170
REMARK   74  A    between atoms: _170  and  _171
REMARK   75  A    between atoms: _171  and  _172
REMARK   76  A    between atoms: _172  and  _173
REMARK   77  A    between atoms: _177  and  _179
REMARK   78  A    between atoms: _179  and  _180
REMARK   79  A    between atoms: _179  and  _182
REMARK   80  A    between atoms: _182  and  _183
REMARK   81  A    between atoms: _186  and  _188
REMARK   82  A    between atoms: _188  and  _189
REMARK   83  A    between atoms: _188  and  _191
REMARK   84  A    between atoms: _191  and  _192
REMARK   85  A    between atoms: _192  and  _193
REMARK   86  A    between atoms: _196  and  _198
REMARK   87  A    between atoms: _198  and  _199
REMARK   88  A    between atoms: _198  and  _201
REMARK   89  A    between atoms: _201  and  _202
REMARK   90  A    between atoms: _202  and  _203
REMARK   91  A    between atoms: _203  and  _204
REMARK   92  A    between atoms: _204  and  _205
REMARK   93  A    between atoms: _209  and  _211
REMARK   94  A    between atoms: _211  and  _212
REMARK   95  A    between atoms: _214  and  _216
REMARK   96  A    between atoms: _216  and  _217
REMARK   97  A    between atoms: _216  and  _219
REMARK   98  A    between atoms: _219  and  _220
REMARK   99  A    between atoms: _223  and  _225
REMARK  100  A    between atoms: _225  and  _226
REMARK  101  A    between atoms: _228  and  _230
REMARK  102  A    between atoms: _230  and  _231
REMARK  103  A    between atoms: _230  and  _233
REMARK  104  A    between atoms: _233  and  _234
REMARK  105  A    between atoms: _234  and  _235
REMARK  106  A    between atoms: _235  and  _236
REMARK  107  A    between atoms: _236  and  _237
REMARK  108  A    between atoms: _241  and  _243
REMARK  109  A    between atoms: _243  and  _244
REMARK  110  A    between atoms: _243  and  _246
REMARK  111  A    between atoms: _246  and  _247
REMARK  112  A    between atoms: _250  and  _252
REMARK  113  A    between atoms: _252  and  _253
REMARK  114  A    between atoms: _252  and  _255
REMARK  115  A    between atoms: _255  and  _256
REMARK  116  A    between atoms: _262  and  _264
REMARK  117  A    between atoms: _264  and  _265
REMARK  118  A    between atoms: _264  and  _267
REMARK  119  A    between atoms: _267  and  _268
REMARK  120  A    between atoms: _271  and  _273
REMARK  121  A    between atoms: _273  and  _274
REMARK  122  A    between atoms: _273  and  _276
REMARK  123  A    between atoms: _276  and  _277
REMARK  124  A    between atoms: _277  and  _278
REMARK  125  A    between atoms: _278  and  _279
REMARK  126  A    between atoms: _279  and  _280
REMARK  127  A    between atoms: _284  and  _286
REMARK  128  A    between atoms: _286  and  _287
REMARK  129  A    between atoms: _286  and  _289
REMARK  130  A    between atoms: _289  and  _290
REMARK  131  A    between atoms: _293  and  _295
REMARK  132  A    between atoms: _295  and  _296
REMARK  133  A    between atoms: _295  and  _298
REMARK  134  A    between atoms: _301  and  _303
REMARK  135  A    between atoms: _303  and  _304
REMARK  136  A    between atoms: _308  and  _309
REMARK  137  A    between atoms: _314  and  _316
REMARK  138  A    between atoms: _316  and  _317
REMARK  139  A    between atoms: _316  and  _319
REMARK  140  A    between atoms: _319  and  _320
REMARK  141  A    between atoms: _322  and  _324
REMARK  142  A    between atoms: _324  and  _325
REMARK  143  A    between atoms: _324  and  _327
REMARK  144  A    between atoms: _327  and  _328
REMARK  145  A    between atoms: _331  and  _333
REMARK  146  A    between atoms: _333  and  _334
REMARK  147  A    between atoms: _333  and  _336
REMARK  148  A    between atoms: _336  and  _337
REMARK  149  A    between atoms: _340  and  _342
REMARK  150  A    between atoms: _342  and  _343
REMARK  151  A    between atoms: _342  and  _345
REMARK  152  A    between atoms: _348  and  _350
REMARK  153  A    between atoms: _350  and  _351
REMARK  154  A    between atoms: _350  and  _353
REMARK  155  A    between atoms: _356  and  _358
REMARK  156  A    between atoms: _358  and  _359
REMARK  157  A    between atoms: _358  and  _361
REMARK  158  A    between atoms: _361  and  _362
REMARK  159  A    between atoms: _362  and  _363
REMARK  160  A    between atoms: _366  and  _368
REMARK  161  A    between atoms: _368  and  _369
REMARK  162  A    between atoms: _368  and  _371
REMARK  163  A    between atoms: _373  and  _375
REMARK  164  A    between atoms: _375  and  _376
REMARK  165  A    between atoms: _375  and  _378
REMARK  166  A    between atoms: _381  and  _383
REMARK  167  A    between atoms: _383  and  _384
REMARK  168  A    between atoms: _383  and  _386
REMARK  169  A    between atoms: _389  and  _391
REMARK  170  A    between atoms: _391  and  _392
REMARK  171  A    between atoms: _395  and  _397
REMARK  172  A    between atoms: _397  and  _398
REMARK  173  A    between atoms: _401  and  _403
REMARK  174  A    between atoms: _403  and  _404
REMARK  175  A    between atoms: _403  and  _406
REMARK  176  A    between atoms: _406  and  _407
REMARK  177  A    between atoms: _410  and  _412
REMARK  178  A    between atoms: _412  and  _413
REMARK  179  A    between atoms: _412  and  _415
REMARK  180  A    between atoms: _415  and  _416
REMARK  181  A    between atoms: _416  and  _417
REMARK  182  A    between atoms: _422  and  _424
REMARK  183  A    between atoms: _424  and  _425
REMARK  184  A    between atoms: _424  and  _427
REMARK  185  A    between atoms: _430  and  _432
REMARK  186  A    between atoms: _432  and  _433
REMARK  187  A    between atoms: _432  and  _435
REMARK  188  A    between atoms: _435  and  _436
REMARK  189  A    between atoms: _436  and  _437
REMARK  190  A    between atoms: _437  and  _438
REMARK  191  A    between atoms: _447  and  _449
REMARK  192  A    between atoms: _449  and  _450
REMARK  193  A    between atoms: _449  and  _452
REMARK  194  A    between atoms: _452  and  _453
REMARK  195  A    between atoms: _456  and  _458
REMARK  196  A    between atoms: _458  and  _459
REMARK  197  A    between atoms: _462  and  _464
REMARK  198  A    between atoms: _464  and  _465
REMARK  199  A    between atoms: _464  and  _467
REMARK                            x       y       z     vdW  Elec       q    Type
REMARK                         _______ _______ _______ _____ _____    ______ ____
ROOT
ATOM      1  CA  GLN A   4     -10.851   2.573   1.623  0.00  0.00    +0.149 C 
ENDROOT
BRANCH   1   2
ATOM      2  C   GLN A   4     -10.913   3.530   2.809  0.00  0.00    +0.241 C 
ATOM      3  N   LYS A   5      -9.904   3.495   3.671  0.00  0.00    -0.297 N 
ATOM      4  H   LYS A   5      -9.173   2.765   3.550  0.00  0.00    +0.150 HD
ATOM      5  O   GLN A   4     -11.854   4.318   2.922  0.00  0.00    -0.273 OA
BRANCH   3   6
ATOM      6  CA  LYS A   5      -9.774   4.435   4.781  0.00  0.00    +0.149 C 
BRANCH   6   7
ATOM      7  C   LYS A   5      -8.307   4.891   4.888  0.00  0.00    +0.241 C 
ATOM      8  N   VAL A   6      -8.055   5.851   5.769  0.00  0.00    -0.297 N 
ATOM      9  H   VAL A   6      -8.855   6.298   6.260  0.00  0.00    +0.150 HD
ATOM     10  O   LYS A   5      -7.421   4.368   4.187  0.00  0.00    -0.273 OA
BRANCH   8  11
ATOM     11  CA  VAL A   6      -6.701   6.307   6.079  0.00  0.00    +0.149 C 
BRANCH  11  12
ATOM     12  C   VAL A   6      -6.461   6.155   7.578  0.00  0.00    +0.241 C 
ATOM     13  O   VAL A   6      -7.326   6.503   8.368  0.00  0.00    -0.273 OA
ATOM     14  N   LYS A   7      -5.294   5.627   7.966  0.00  0.00    -0.298 N 
ATOM     15  H   LYS A   7      -4.662   5.224   7.245  0.00  0.00    +0.150 HD
BRANCH  14  16
ATOM     16  CA  LYS A   7      -4.878   5.597   9.358  0.00  0.00    +0.137 C 
BRANCH  16  17
ATOM     17  C   LYS A   7      -3.854   6.727   9.548  0.00  0.00    +0.227 C 
ATOM     18  O   LYS A   7      -2.882   6.811   8.785  0.00  0.00    -0.286 OA
ENDBRANCH  16  17
BRANCH  16  19
ATOM     19  CB  LYS A   7      -4.241   4.247   9.722  0.00  0.00    +0.028 C 
BRANCH  19  20
ATOM     20  CG  LYS A   7      -3.741   4.164  11.151  0.00  0.00    -0.000 C 
BRANCH  20  21
ATOM     21  CD  LYS A   7      -2.865   2.954  11.422  0.00  0.00    -0.024 C 
BRANCH  21  22
ATOM     22  CE  LYS A   7      -3.682   1.718  11.579  0.00  0.00    -0.086 C 
BRANCH  22  23
ATOM     23  NZ  LYS A   7      -2.741   0.637  11.949  0.00  0.00    +0.380 N 
ATOM     24  HZ1 LYS A   7      -2.264   0.884  12.840  0.00  0.00    -0.089 HD
ATOM     25  HZ2 LYS A   7      -3.267  -0.252  12.071  0.00  0.00    -0.089 HD
ATOM     26  HZ3 LYS A   7      -2.033   0.522  11.196  0.00  0.00    -0.089 HD
ENDBRANCH  22  23
ENDBRANCH  21  22
ENDBRANCH  20  21
ENDBRANCH  19  20
ENDBRANCH  16  19
ENDBRANCH  14  16
ENDBRANCH  11  12
BRANCH  11  27
ATOM     27  CB  VAL A   6      -6.494   7.777   5.656  0.00  0.00    +0.027 C 
ATOM     28  CG2 VAL A   6      -5.190   8.311   6.220  0.00  0.00    +0.002 C 
ATOM     29  CG1 VAL A   6      -6.471   7.872   4.149  0.00  0.00    +0.002 C 
ENDBRANCH  11  27
ENDBRANCH   8  11
ENDBRANCH   6   7
BRANCH   6  30
ATOM     30  CB  LYS A   5     -10.265   3.851   6.110  0.00  0.00    +0.029 C 
BRANCH  30  31
ATOM     31  CG  LYS A   5     -11.720   3.353   6.114  0.00  0.00    +0.000 C 
BRANCH  31  32
ATOM     32  CD  LYS A   5     -12.715   4.503   6.084  0.00  0.00    -0.024 C 
BRANCH  32  33
ATOM     33  CE  LYS A   5     -14.122   3.949   5.867  0.00  0.00    -0.086 C 
BRANCH  33  34
ATOM     34  NZ  LYS A   5     -15.148   5.027   5.810  0.00  0.00    +0.380 N 
ATOM     35  HZ1 LYS A   5     -15.143   5.556   6.705  0.00  0.00    -0.089 HD
ATOM     36  HZ2 LYS A   5     -16.086   4.603   5.662  0.00  0.00    -0.089 HD
ATOM     37  HZ3 LYS A   5     -14.929   5.671   5.024  0.00  0.00    -0.089 HD
ENDBRANCH  33  34
ENDBRANCH  32  33
ENDBRANCH  31  32
ENDBRANCH  30  31
ENDBRANCH   6  30
ENDBRANCH   3   6
ENDBRANCH   1   2
BRANCH   1  40
ATOM     38  C   HIS A   3     -12.546   0.997   2.446  0.00  0.00    +0.241 C 
ATOM     39  O   HIS A   3     -11.927   0.747   3.476  0.00  0.00    -0.273 OA
ATOM     40  N   GLN A   4     -12.120   1.824   1.508  0.00  0.00    -0.297 N 
ATOM     41  H   GLN A   4     -12.701   1.953   0.655  0.00  0.00    +0.150 HD
BRANCH  38  42
ATOM     42  CA  HIS A   3     -13.936   0.408   2.199  0.00  0.00    +0.155 C 
BRANCH  42  44
ATOM     43  C   LEU A   2     -13.948  -2.024   2.053  0.00  0.00    +0.241 C 
ATOM     44  N   HIS A   3     -14.024  -0.917   2.779  0.00  0.00    -0.297 N 
ATOM     45  H   HIS A   3     -14.152  -1.003   3.807  0.00  0.00    +0.150 HD
ATOM     46  O   LEU A   2     -13.824  -2.043   0.831  0.00  0.00    -0.273 OA
BRANCH  43  47
ATOM     47  CA  LEU A   2     -14.074  -3.307   2.858  0.00  0.00    +0.149 C 
BRANCH  47  50
ATOM     48  C   ASP A   1     -16.015  -4.476   2.225  0.00  0.00    +0.239 C 
ATOM     49  O   ASP A   1     -16.683  -3.708   2.912  0.00  0.00    -0.274 OA
ATOM     50  N   LEU A   2     -14.711  -4.344   2.094  0.00  0.00    -0.297 N 
ATOM     51  H   LEU A   2     -14.165  -4.965   1.463  0.00  0.00    +0.150 HD
BRANCH  48  52
ATOM     52  CA  ASP A   1     -16.650  -5.611   1.477  0.00  0.00    +0.156 C 
BRANCH  52  53
ATOM     53  N   ASP A   1     -17.697  -6.265   2.295  0.00  0.00    -0.238 NA
ATOM     54  H   ASP A   1     -18.698  -6.105   2.063  0.00  0.00    +0.142 HD
ENDBRANCH  52  53
BRANCH  52  55
ATOM     55  CB  ASP A   1     -17.218  -5.086   0.158  0.00  0.00    +0.140 C 
BRANCH  55  56
ATOM     56  CG  ASP A   1     -17.722  -6.203  -0.744  0.00  0.00    +0.367 C 
ATOM     57  OD2 ASP A   1     -17.343  -7.374  -0.513  0.00  0.00    -0.246 OA
ATOM     58  OD1 ASP A   1     -18.496  -5.912  -1.685  0.00  0.00    -0.246 OA
ENDBRANCH  55  56
ENDBRANCH  52  55
ENDBRANCH  48  52
ENDBRANCH  47  50
BRANCH  47  59
ATOM     59  CB  LEU A   2     -12.724  -3.802   3.332  0.00  0.00    +0.029 C 
BRANCH  59  60
ATOM     60  CG  LEU A   2     -12.755  -5.099   4.142  0.00  0.00    +0.002 C 
ATOM     61  CD2 LEU A   2     -13.742  -5.072   5.292  0.00  0.00    +0.000 C 
ATOM     62  CD1 LEU A   2     -11.355  -5.340   4.663  0.00  0.00    +0.000 C 
ENDBRANCH  59  60
ENDBRANCH  47  59
ENDBRANCH  43  47
ENDBRANCH  42  44
BRANCH  42  63
ATOM     63  CB  HIS A   3     -15.005   1.346   2.819  0.00  0.00    +0.076 C 
BRANCH  63  64
ATOM     64  CG  HIS A   3     -16.420   1.041   2.419  0.00  0.00    +0.082 A 
ATOM     65  ND1 HIS A   3     -17.499   1.719   2.939  0.00  0.00    -0.227 NA
ATOM     66  CE1 HIS A   3     -18.612   1.248   2.405  0.00  0.00    +0.199 A 
ATOM     67  NE2 HIS A   3     -18.293   0.283   1.562  0.00  0.00    -0.221 NA
ATOM     68  CD2 HIS A   3     -16.924   0.140   1.552  0.00  0.00    +0.115 A 
ENDBRANCH  63  64
ENDBRANCH  42  63
ENDBRANCH  38  42
ENDBRANCH   1  40
BRANCH   1  69
ATOM     69  CB  GLN A   4     -10.625   3.337   0.319  0.00  0.00    +0.039 C 
BRANCH  69  70
ATOM     70  CG  GLN A   4      -9.344   4.146   0.201  0.00  0.00    +0.087 C 
BRANCH  70  71
ATOM     71  CD  GLN A   4      -9.378   5.183  -0.930  0.00  0.00    +0.219 C 
ATOM     72  OE1 GLN A   4     -10.423   5.774  -1.247  0.00  0.00    -0.275 OA
ATOM     73  NE2 GLN A   4      -8.233   5.427  -1.520  0.00  0.00    -0.329 N 
ATOM     74 HE21 GLN A   4      -7.378   4.912  -1.228  0.00  0.00    +0.145 HD
ATOM     75 HE22 GLN A   4      -8.180   6.135  -2.280  0.00  0.00    +0.145 HD
ENDBRANCH  70  71
ENDBRANCH  69  70
ENDBRANCH   1  69
TORSDOF 34
REMARK  Name = ../refined-set-2016/4ozj/4ozj_pocket.pdb
REMARK  199 active torsions:
REMARK  status: ('A' for Active; 'I' for Inactive)
REMARK    1  A    between atoms: _1  and  _3
REMARK    2  A    between atoms: _3  and  _4
REMARK    3  A    between atoms: _3  and  _6
REMARK    4  A    between atoms: _6  and  _7
REMARK    5  A    between atoms: _7  and  _8
REMARK    6  A    between atoms: _10  and  _12
REMARK    7  A    between atoms: _12  and  _13
REMARK    8  A    between atoms: _16  and  _18
REMARK    9  A    between atoms: _18  and  _19
REMARK   10  A    between atoms: _18  and  _21
REMARK   11  A    between atoms: _21  and  _22
REMARK   12  A    between atoms: _25  and  _27
REMARK   13  A    between atoms: _27  and  _28
REMARK   14  A    between atoms: _27  and  _30
REMARK   15  A    between atoms: _30  and  _31
REMARK   16  A    between atoms: _34  and  _36
REMARK   17  A    between atoms: _36  and  _37
REMARK   18  A    between atoms: _36  and  _39
REMARK   19  A    between atoms: _39  and  _40
REMARK   20  A    between atoms: _40  and  _41
REMARK   21  A    between atoms: _41  and  _42
REMARK   22  A    between atoms: _51  and  _53
REMARK   23  A    between atoms: _53  and  _54
REMARK   24  A    between atoms: _53  and  _56
REMARK   25  A    between atoms: _59  and  _61
REMARK   26  A    between atoms: _61  and  _62
REMARK   27  A    between atoms: _61  and  _64
REMARK   28  A    between atoms: _64  and  _65
REMARK   29  A    between atoms: _67  and  _69
REMARK   30  A    between atoms: _69  and  _70
REMARK   31  A    between atoms: _72  and  _74
REMARK   32  A    between atoms: _74  and  _75
REMARK   33  A    between atoms: _74  and  _77
REMARK   34  A    between atoms: _77  and  _78
REMARK   35  A    between atoms: _78  and  _79
REMARK   36  A    between atoms: _79  and  _80
REMARK   37  A    between atoms: _89  and  _91
REMARK   38  A    between atoms: _91  and  _92
REMARK   39  A    between atoms: _94  and  _96
REMARK   40  A    between atoms: _96  and  _97
REMARK   41  A    between atoms: _96  and  _99
REMARK   42  A    between atoms: _99  and  _100
REMARK   43  A    between atoms: _102  and  _104
REMARK   44  A    between atoms: _104  and  _105
REMARK   45  A    between atoms: _104  and  _107
REMARK   46  A    between atoms: _107  and  _108
REMARK   47  A    between atoms: _111  and  _113
REMARK   48  A    between atoms: _113  and  _114
REMARK   49  A    between atoms: _113  and  _116
REMARK   50  A    between atoms: _116  and  _117
REMARK   51  A    between atoms: _120  and  _122
REMARK   52  A    between atoms: _122  and  _123
REMARK   53  A    between atoms: _122  and  _125
REMARK   54  A    between atoms: _125  and  _126
REMARK   55  A    between atoms: _131  and  _133
REMARK   56  A    between atoms: _133  and  _134
REMARK   57  A    between atoms: _133  and  _136
REMARK   58  A    between atoms: _136  and  _137
REMARK   59  A    between atoms: _137  and  _138
REMARK   60  A    between atoms: _143  and  _145
REMARK   61  A    between atoms: _145  and  _146
REMARK   62  A    between atoms: _145  and  _148
REMARK   63  A    between atoms: _148  and  _149
REMARK   64  A    between atoms: _149  and  _150
REMARK   65  A    between atoms: _150  and  _151
REMARK   66  A    between atoms: _151  and  _152
REMARK   67  A    between atoms: _156  and  _158
REMARK   68  A    between atoms: _158  and  _159
REMARK   69  A    between atoms: _158  and  _161
REMARK   70  A    between atoms: _164  and  _166
REMARK   71  A    between atoms: _166  and  _167
REMARK   72  A    between atoms: _166  and  _169
REMARK   73  A    between atoms: _169  and  _170
REMARK   74  A    between atoms: _170  and  _171
REMARK   75  A    between atoms: _171  and  _172
REMARK   76  A    between atoms: _172  and  _173
REMARK   77  A    between atoms: _177  and  _179
REMARK   78  A    between atoms: _179  and  _180
REMARK   79  A    between atoms: _179  and  _182
REMARK   80  A    between atoms: _182  and  _183
REMARK   81  A    between atoms: _186  and  _188
REMARK   82  A    between atoms: _188  and  _189
REMARK   83  A    between atoms: _188  and  _191
REMARK   84  A    between atoms: _191  and  _192
REMARK   85  A    between atoms: _192  and  _193
REMARK   86  A    between atoms: _196  and  _198
REMARK   87  A    between atoms: _198  and  _199
REMARK   88  A    between atoms: _198  and  _201
REMARK   89  A    between atoms: _201  and  _202
REMARK   90  A    between atoms: _202  and  _203
REMARK   91  A    between atoms: _203  and  _204
REMARK   92  A    between atoms: _204  and  _205
REMARK   93  A    between atoms: _209  and  _211
REMARK   94  A    between atoms: _211  and  _212
REMARK   95  A    between atoms: _214  and  _216
REMARK   96  A    between atoms: _216  and  _217
REMARK   97  A    between atoms: _216  and  _219
REMARK   98  A    between atoms: _219  and  _220
REMARK   99  A    between atoms: _223  and  _225
REMARK  100  A    between atoms: _225  and  _226
REMARK  101  A    between atoms: _228  and  _230
REMARK  102  A    between atoms: _230  and  _231
REMARK  103  A    between atoms: _230  and  _233
REMARK  104  A    between atoms: _233  and  _234
REMARK  105  A    between atoms: _234  and  _235
REMARK  106  A    between atoms: _235  and  _236
REMARK  107  A    between atoms: _236  and  _237
REMARK  108  A    between atoms: _241  and  _243
REMARK  109  A    between atoms: _243  and  _244
REMARK  110  A    between atoms: _243  and  _246
REMARK  111  A    between atoms: _246  and  _247
REMARK  112  A    between atoms: _250  and  _252
REMARK  113  A    between atoms: _252  and  _253
REMARK  114  A    between atoms: _252  and  _255
REMARK  115  A    between atoms: _255  and  _256
REMARK  116  A    between atoms: _262  and  _264
REMARK  117  A    between atoms: _264  and  _265
REMARK  118  A    between atoms: _264  and  _267
REMARK  119  A    between atoms: _267  and  _268
REMARK  120  A    between atoms: _271  and  _273
REMARK  121  A    between atoms: _273  and  _274
REMARK  122  A    between atoms: _273  and  _276
REMARK  123  A    between atoms: _276  and  _277
REMARK  124  A    between atoms: _277  and  _278
REMARK  125  A    between atoms: _278  and  _279
REMARK  126  A    between atoms: _279  and  _280
REMARK  127  A    between atoms: _284  and  _286
REMARK  128  A    between atoms: _286  and  _287
REMARK  129  A    between atoms: _286  and  _289
REMARK  130  A    between atoms: _289  and  _290
REMARK  131  A    between atoms: _293  and  _295
REMARK  132  A    between atoms: _295  and  _296
REMARK  133  A    between atoms: _295  and  _298
REMARK  134  A    between atoms: _301  and  _303
REMARK  135  A    between atoms: _303  and  _304
REMARK  136  A    between atoms: _308  and  _309
REMARK  137  A    between atoms: _314  and  _316
REMARK  138  A    between atoms: _316  and  _317
REMARK  139  A    between atoms: _316  and  _319
REMARK  140  A    between atoms: _319  and  _320
REMARK  141  A    between atoms: _322  and  _324
REMARK  142  A    between atoms: _324  and  _325
REMARK  143  A    between atoms: _324  and  _327
REMARK  144  A    between atoms: _327  and  _328
REMARK  145  A    between atoms: _331  and  _333
REMARK  146  A    between atoms: _333  and  _334
REMARK  147  A    between atoms: _333  and  _336
REMARK  148  A    between atoms: _336  and  _337
REMARK  149  A    between atoms: _340  and  _342
REMARK  150  A    between atoms: _342  and  _343
REMARK  151  A    between atoms: _342  and  _345
REMARK  152  A    between atoms: _348  and  _350
REMARK  153  A    between atoms: _350  and  _351
REMARK  154  A    between atoms: _350  and  _353
REMARK  155  A    between atoms: _356  and  _358
REMARK  156  A    between atoms: _358  and  _359
REMARK  157  A    between atoms: _358  and  _361
REMARK  158  A    between atoms: _361  and  _362
REMARK  159  A    between atoms: _362  and  _363
REMARK  160  A    between atoms: _366  and  _368
REMARK  161  A    between atoms: _368  and  _369
REMARK  162  A    between atoms: _368  and  _371
REMARK  163  A    between atoms: _373  and  _375
REMARK  164  A    between atoms: _375  and  _376
REMARK  165  A    between atoms: _375  and  _378
REMARK  166  A    between atoms: _381  and  _383
REMARK  167  A    between atoms: _383  and  _384
REMARK  168  A    between atoms: _383  and  _386
REMARK  169  A    between atoms: _389  and  _391
REMARK  170  A    between atoms: _391  and  _392
REMARK  171  A    between atoms: _395  and  _397
REMARK  172  A    between atoms: _397  and  _398
REMARK  173  A    between atoms: _401  and  _403
REMARK  174  A    between atoms: _403  and  _404
REMARK  175  A    between atoms: _403  and  _406
REMARK  176  A    between atoms: _406  and  _407
REMARK  177  A    between atoms: _410  and  _412
REMARK  178  A    between atoms: _412  and  _413
REMARK  179  A    between atoms: _412  and  _415
REMARK  180  A    between atoms: _415  and  _416
REMARK  181  A    between atoms: _416  and  _417
REMARK  182  A    between atoms: _422  and  _424
REMARK  183  A    between atoms: _424  and  _425
REMARK  184  A    between atoms: _424  and  _427
REMARK  185  A    between atoms: _430  and  _432
REMARK  186  A    between atoms: _432  and  _433
REMARK  187  A    between atoms: _432  and  _435
REMARK  188  A    between atoms: _435  and  _436
REMARK  189  A    between atoms: _436  and  _437
REMARK  190  A    between atoms: _437  and  _438
REMARK  191  A    between atoms: _447  and  _449
REMARK  192  A    between atoms: _449  and  _450
REMARK  193  A    between atoms: _449  and  _452
REMARK  194  A    between atoms: _452  and  _453
REMARK  195  A    between atoms: _456  and  _458
REMARK  196  A    between atoms: _458  and  _459
REMARK  197  A    between atoms: _462  and  _464
REMARK  198  A    between atoms: _464  and  _465
REMARK  199  A    between atoms: _464  and  _467
REMARK                            x       y       z     vdW  Elec       q    Type
REMARK                         _______ _______ _______ _____ _____    ______ ____
ROOT
ATOM      1  CA  THR A   1     -19.016  14.563   8.320  0.00  0.00    +0.160 C 
ENDROOT
BRANCH   1   2
ATOM      2  N   THR A   1     -18.000  14.237   9.327  0.00  0.00    -0.237 NA
ATOM      3  H   THR A   1     -18.052  13.317   9.809  0.00  0.00    +0.142 HD
ENDBRANCH   1   2
BRANCH   1   4
ATOM      4  C   THR A   1     -20.437  14.376   8.857  0.00  0.00    +0.227 C 
ATOM      5  O   THR A   1     -21.357  15.001   8.349  0.00  0.00    -0.287 OA
ENDBRANCH   1   4
BRANCH   1   6
ATOM      6  CB  THR A   1     -18.911  13.726   7.023  0.00  0.00    +0.134 C 
ATOM      7  CG2 THR A   1     -17.491  13.688   6.478  0.00  0.00    +0.034 C 
BRANCH   6   8
ATOM      8  OG1 THR A   1     -19.403  12.389   7.245  0.00  0.00    -0.383 OA
ATOM      9  HG1 THR A   1     -18.866  11.954   7.954  0.00  0.00    +0.210 HD
ENDBRANCH   6   8
ENDBRANCH   1   6
TORSDOF 4
REMARK  Name = ../refined-set-2016/4ozj/4ozj_pocket.pdb
REMARK  199 active torsions:
REMARK  status: ('A' for Active; 'I' for Inactive)
REMARK    1  A    between atoms: _1  and  _3
REMARK    2  A    between atoms: _3  and  _4
REMARK    3  A    between atoms: _3  and  _6
REMARK    4  A    between atoms: _6  and  _7
REMARK    5  A    between atoms: _7  and  _8
REMARK    6  A    between atoms: _10  and  _12
REMARK    7  A    between atoms: _12  and  _13
REMARK    8  A    between atoms: _16  and  _18
REMARK    9  A    between atoms: _18  and  _19
REMARK   10  A    between atoms: _18  and  _21
REMARK   11  A    between atoms: _21  and  _22
REMARK   12  A    between atoms: _25  and  _27
REMARK   13  A    between atoms: _27  and  _28
REMARK   14  A    between atoms: _27  and  _30
REMARK   15  A    between atoms: _30  and  _31
REMARK   16  A    between atoms: _34  and  _36
REMARK   17  A    between atoms: _36  and  _37
REMARK   18  A    between atoms: _36  and  _39
REMARK   19  A    between atoms: _39  and  _40
REMARK   20  A    between atoms: _40  and  _41
REMARK   21  A    between atoms: _41  and  _42
REMARK   22  A    between atoms: _51  and  _53
REMARK   23  A    between atoms: _53  and  _54
REMARK   24  A    between atoms: _53  and  _56
REMARK   25  A    between atoms: _59  and  _61
REMARK   26  A    between atoms: _61  and  _62
REMARK   27  A    between atoms: _61  and  _64
REMARK   28  A    between atoms: _64  and  _65
REMARK   29  A    between atoms: _67  and  _69
REMARK   30  A    between atoms: _69  and  _70
REMARK   31  A    between atoms: _72  and  _74
REMARK   32  A    between atoms: _74  and  _75
REMARK   33  A    between atoms: _74  and  _77
REMARK   34  A    between atoms: _77  and  _78
REMARK   35  A    between atoms: _78  and  _79
REMARK   36  A    between atoms: _79  and  _80
REMARK   37  A    between atoms: _89  and  _91
REMARK   38  A    between atoms: _91  and  _92
REMARK   39  A    between atoms: _94  and  _96
REMARK   40  A    between atoms: _96  and  _97
REMARK   41  A    between atoms: _96  and  _99
REMARK   42  A    between atoms: _99  and  _100
REMARK   43  A    between atoms: _102  and  _104
REMARK   44  A    between atoms: _104  and  _105
REMARK   45  A    between atoms: _104  and  _107
REMARK   46  A    between atoms: _107  and  _108
REMARK   47  A    between atoms: _111  and  _113
REMARK   48  A    between atoms: _113  and  _114
REMARK   49  A    between atoms: _113  and  _116
REMARK   50  A    between atoms: _116  and  _117
REMARK   51  A    between atoms: _120  and  _122
REMARK   52  A    between atoms: _122  and  _123
REMARK   53  A    between atoms: _122  and  _125
REMARK   54  A    between atoms: _125  and  _126
REMARK   55  A    between atoms: _131  and  _133
REMARK   56  A    between atoms: _133  and  _134
REMARK   57  A    between atoms: _133  and  _136
REMARK   58  A    between atoms: _136  and  _137
REMARK   59  A    between atoms: _137  and  _138
REMARK   60  A    between atoms: _143  and  _145
REMARK   61  A    between atoms: _145  and  _146
REMARK   62  A    between atoms: _145  and  _148
REMARK   63  A    between atoms: _148  and  _149
REMARK   64  A    between atoms: _149  and  _150
REMARK   65  A    between atoms: _150  and  _151
REMARK   66  A    between atoms: _151  and  _152
REMARK   67  A    between atoms: _156  and  _158
REMARK   68  A    between atoms: _158  and  _159
REMARK   69  A    between atoms: _158  and  _161
REMARK   70  A    between atoms: _164  and  _166
REMARK   71  A    between atoms: _166  and  _167
REMARK   72  A    between atoms: _166  and  _169
REMARK   73  A    between atoms: _169  and  _170
REMARK   74  A    between atoms: _170  and  _171
REMARK   75  A    between atoms: _171  and  _172
REMARK   76  A    between atoms: _172  and  _173
REMARK   77  A    between atoms: _177  and  _179
REMARK   78  A    between atoms: _179  and  _180
REMARK   79  A    between atoms: _179  and  _182
REMARK   80  A    between atoms: _182  and  _183
REMARK   81  A    between atoms: _186  and  _188
REMARK   82  A    between atoms: _188  and  _189
REMARK   83  A    between atoms: _188  and  _191
REMARK   84  A    between atoms: _191  and  _192
REMARK   85  A    between atoms: _192  and  _193
REMARK   86  A    between atoms: _196  and  _198
REMARK   87  A    between atoms: _198  and  _199
REMARK   88  A    between atoms: _198  and  _201
REMARK   89  A    between atoms: _201  and  _202
REMARK   90  A    between atoms: _202  and  _203
REMARK   91  A    between atoms: _203  and  _204
REMARK   92  A    between atoms: _204  and  _205
REMARK   93  A    between atoms: _209  and  _211
REMARK   94  A    between atoms: _211  and  _212
REMARK   95  A    between atoms: _214  and  _216
REMARK   96  A    between atoms: _216  and  _217
REMARK   97  A    between atoms: _216  and  _219
REMARK   98  A    between atoms: _219  and  _220
REMARK   99  A    between atoms: _223  and  _225
REMARK  100  A    between atoms: _225  and  _226
REMARK  101  A    between atoms: _228  and  _230
REMARK  102  A    between atoms: _230  and  _231
REMARK  103  A    between atoms: _230  and  _233
REMARK  104  A    between atoms: _233  and  _234
REMARK  105  A    between atoms: _234  and  _235
REMARK  106  A    between atoms: _235  and  _236
REMARK  107  A    between atoms: _236  and  _237
REMARK  108  A    between atoms: _241  and  _243
REMARK  109  A    between atoms: _243  and  _244
REMARK  110  A    between atoms: _243  and  _246
REMARK  111  A    between atoms: _246  and  _247
REMARK  112  A    between atoms: _250  and  _252
REMARK  113  A    between atoms: _252  and  _253
REMARK  114  A    between atoms: _252  and  _255
REMARK  115  A    between atoms: _255  and  _256
REMARK  116  A    between atoms: _262  and  _264
REMARK  117  A    between atoms: _264  and  _265
REMARK  118  A    between atoms: _264  and  _267
REMARK  119  A    between atoms: _267  and  _268
REMARK  120  A    between atoms: _271  and  _273
REMARK  121  A    between atoms: _273  and  _274
REMARK  122  A    between atoms: _273  and  _276
REMARK  123  A    between atoms: _276  and  _277
REMARK  124  A    between atoms: _277  and  _278
REMARK  125  A    between atoms: _278  and  _279
REMARK  126  A    between atoms: _279  and  _280
REMARK  127  A    between atoms: _284  and  _286
REMARK  128  A    between atoms: _286  and  _287
REMARK  129  A    between atoms: _286  and  _289
REMARK  130  A    between atoms: _289  and  _290
REMARK  131  A    between atoms: _293  and  _295
REMARK  132  A    between atoms: _295  and  _296
REMARK  133  A    between atoms: _295  and  _298
REMARK  134  A    between atoms: _301  and  _303
REMARK  135  A    between atoms: _303  and  _304
REMARK  136  A    between atoms: _308  and  _309
REMARK  137  A    between atoms: _314  and  _316
REMARK  138  A    between atoms: _316  and  _317
REMARK  139  A    between atoms: _316  and  _319
REMARK  140  A    between atoms: _319  and  _320
REMARK  141  A    between atoms: _322  and  _324
REMARK  142  A    between atoms: _324  and  _325
REMARK  143  A    between atoms: _324  and  _327
REMARK  144  A    between atoms: _327  and  _328
REMARK  145  A    between atoms: _331  and  _333
REMARK  146  A    between atoms: _333  and  _334
REMARK  147  A    between atoms: _333  and  _336
REMARK  148  A    between atoms: _336  and  _337
REMARK  149  A    between atoms: _340  and  _342
REMARK  150  A    between atoms: _342  and  _343
REMARK  151  A    between atoms: _342  and  _345
REMARK  152  A    between atoms: _348  and  _350
REMARK  153  A    between atoms: _350  and  _351
REMARK  154  A    between atoms: _350  and  _353
REMARK  155  A    between atoms: _356  and  _358
REMARK  156  A    between atoms: _358  and  _359
REMARK  157  A    between atoms: _358  and  _361
REMARK  158  A    between atoms: _361  and  _362
REMARK  159  A    between atoms: _362  and  _363
REMARK  160  A    between atoms: _366  and  _368
REMARK  161  A    between atoms: _368  and  _369
REMARK  162  A    between atoms: _368  and  _371
REMARK  163  A    between atoms: _373  and  _375
REMARK  164  A    between atoms: _375  and  _376
REMARK  165  A    between atoms: _375  and  _378
REMARK  166  A    between atoms: _381  and  _383
REMARK  167  A    between atoms: _383  and  _384
REMARK  168  A    between atoms: _383  and  _386
REMARK  169  A    between atoms: _389  and  _391
REMARK  170  A    between atoms: _391  and  _392
REMARK  171  A    between atoms: _395  and  _397
REMARK  172  A    between atoms: _397  and  _398
REMARK  173  A    between atoms: _401  and  _403
REMARK  174  A    between atoms: _403  and  _404
REMARK  175  A    between atoms: _403  and  _406
REMARK  176  A    between atoms: _406  and  _407
REMARK  177  A    between atoms: _410  and  _412
REMARK  178  A    between atoms: _412  and  _413
REMARK  179  A    between atoms: _412  and  _415
REMARK  180  A    between atoms: _415  and  _416
REMARK  181  A    between atoms: _416  and  _417
REMARK  182  A    between atoms: _422  and  _424
REMARK  183  A    between atoms: _424  and  _425
REMARK  184  A    between atoms: _424  and  _427
REMARK  185  A    between atoms: _430  and  _432
REMARK  186  A    between atoms: _432  and  _433
REMARK  187  A    between atoms: _432  and  _435
REMARK  188  A    between atoms: _435  and  _436
REMARK  189  A    between atoms: _436  and  _437
REMARK  190  A    between atoms: _437  and  _438
REMARK  191  A    between atoms: _447  and  _449
REMARK  192  A    between atoms: _449  and  _450
REMARK  193  A    between atoms: _449  and  _452
REMARK  194  A    between atoms: _452  and  _453
REMARK  195  A    between atoms: _456  and  _458
REMARK  196  A    between atoms: _458  and  _459
REMARK  197  A    between atoms: _462  and  _464
REMARK  198  A    between atoms: _464  and  _465
REMARK  199  A    between atoms: _464  and  _467
REMARK                            x       y       z     vdW  Elec       q    Type
REMARK                         _______ _______ _______ _____ _____    ______ ____
ROOT
ATOM      1  C   ASP A   4     -15.210   8.226  10.570  0.00  0.00    +0.241 C 
ATOM      2  N   GLY A   5     -15.313   7.103  11.269  0.00  0.00    -0.295 N 
ATOM      3  H   GLY A   5     -16.246   6.659  11.386  0.00  0.00    +0.150 HD
ATOM      4  O   ASP A   4     -14.189   8.878  10.546  0.00  0.00    -0.273 OA
ENDROOT
BRANCH   2   5
ATOM      5  CA  GLY A   5     -14.139   6.478  11.878  0.00  0.00    +0.176 C 
BRANCH   5   6
ATOM      6  C   GLY A   5     -14.018   6.716  13.358  0.00  0.00    +0.243 C 
ATOM      7  O   GLY A   5     -14.966   7.172  14.020  0.00  0.00    -0.273 OA
ATOM      8  N   LYS A   6     -12.854   6.399  13.888  0.00  0.00    -0.297 N 
ATOM      9  H   LYS A   6     -12.067   6.158  13.252  0.00  0.00    +0.150 HD
BRANCH   8  10
ATOM     10  CA  LYS A   6     -12.624   6.372  15.302  0.00  0.00    +0.149 C 
BRANCH  10  11
ATOM     11  C   LYS A   6     -11.189   6.766  15.566  0.00  0.00    +0.241 C 
ATOM     12  N   ILE A   7     -10.969   7.286  16.763  0.00  0.00    -0.297 N 
ATOM     13  H   ILE A   7     -11.787   7.458  17.381  0.00  0.00    +0.150 HD
ATOM     14  O   LYS A   6     -10.322   6.592  14.711  0.00  0.00    -0.273 OA
BRANCH  12  15
ATOM     15  CA  ILE A   7      -9.663   7.626  17.256  0.00  0.00    +0.149 C 
BRANCH  15  16
ATOM     16  C   ILE A   7      -9.401   6.845  18.531  0.00  0.00    +0.241 C 
ATOM     17  O   ILE A   7     -10.246   6.774  19.411  0.00  0.00    -0.273 OA
ATOM     18  N   PHE A   8      -8.203   6.260  18.609  0.00  0.00    -0.298 N 
ATOM     19  H   PHE A   8      -7.548   6.365  17.808  0.00  0.00    +0.150 HD
BRANCH  18  20
ATOM     20  CA  PHE A   8      -7.775   5.490  19.751  0.00  0.00    +0.141 C 
BRANCH  20  21
ATOM     21  C   PHE A   8      -6.495   6.079  20.326  0.00  0.00    +0.227 C 
ATOM     22  O   PHE A   8      -5.644   6.550  19.582  0.00  0.00    -0.286 OA
ENDBRANCH  20  21
BRANCH  20  23
ATOM     23  CB  PHE A   8      -7.526   4.036  19.327  0.00  0.00    +0.054 C 
BRANCH  23  24
ATOM     24  CG  PHE A   8      -8.687   3.418  18.601  0.00  0.00    -0.020 A 
ATOM     25  CD2 PHE A   8      -9.842   3.123  19.292  0.00  0.00    -0.004 A 
ATOM     26  CE2 PHE A   8     -10.919   2.555  18.645  0.00  0.00    -0.000 A 
ATOM     27  CZ  PHE A   8     -10.862   2.300  17.289  0.00  0.00    -0.000 A 
ATOM     28  CE1 PHE A   8      -9.724   2.614  16.579  0.00  0.00    -0.000 A 
ATOM     29  CD1 PHE A   8      -8.636   3.171  17.242  0.00  0.00    -0.004 A 
ENDBRANCH  23  24
ENDBRANCH  20  23
ENDBRANCH  18  20
ENDBRANCH  15  16
BRANCH  15  30
ATOM     30  CB  ILE A   7      -9.557   9.137  17.541  0.00  0.00    +0.027 C 
ATOM     31  CG2 ILE A   7      -8.113   9.486  17.912  0.00  0.00    +0.002 C 
BRANCH  30  32
ATOM     32  CG1 ILE A   7     -10.014   9.925  16.309  0.00  0.00    +0.002 C 
ATOM     33  CD1 ILE A   7     -10.242  11.390  16.579  0.00  0.00    +0.000 C 
ENDBRANCH  30  32
ENDBRANCH  15  30
ENDBRANCH  12  15
ENDBRANCH  10  11
BRANCH  10  34
ATOM     34  CB  LYS A   6     -12.887   4.972  15.872  0.00  0.00    +0.029 C 
BRANCH  34  35
ATOM     35  CG  LYS A   6     -14.367   4.569  15.828  0.00  0.00    +0.000 C 
BRANCH  35  36
ATOM     36  CD  LYS A   6     -14.720   3.480  16.828  0.00  0.00    -0.024 C 
BRANCH  36  37
ATOM     37  CE  LYS A   6     -16.188   3.079  16.705  0.00  0.00    -0.086 C 
BRANCH  37  38
ATOM     38  NZ  LYS A   6     -16.431   2.231  15.516  0.00  0.00    +0.380 N 
ATOM     39  HZ1 LYS A   6     -15.861   1.364  15.588  0.00  0.00    -0.089 HD
ATOM     40  HZ2 LYS A   6     -17.440   1.981  15.470  0.00  0.00    -0.089 HD
ATOM     41  HZ3 LYS A   6     -16.163   2.754  14.658  0.00  0.00    -0.089 HD
ENDBRANCH  37  38
ENDBRANCH  36  37
ENDBRANCH  35  36
ENDBRANCH  34  35
ENDBRANCH  10  34
ENDBRANCH   8  10
ENDBRANCH   5   6
ENDBRANCH   2   5
BRANCH   1  42
ATOM     42  CA  ASP A   4     -16.443   8.728   9.824  0.00  0.00    +0.160 C 
BRANCH  42  44
ATOM     43  C   GLY A   3     -16.997   6.721   8.548  0.00  0.00    +0.243 C 
ATOM     44  N   ASP A   4     -17.367   7.667   9.408  0.00  0.00    -0.296 N 
ATOM     45  H   ASP A   4     -18.333   7.654   9.794  0.00  0.00    +0.150 HD
ATOM     46  O   GLY A   3     -15.866   6.658   8.078  0.00  0.00    -0.273 OA
BRANCH  43  47
ATOM     47  CA  GLY A   3     -18.038   5.668   8.178  0.00  0.00    +0.176 C 
BRANCH  47  49
ATOM     48  C   LYS A   2     -20.416   6.272   8.274  0.00  0.00    +0.241 C 
ATOM     49  N   GLY A   3     -19.322   5.801   8.871  0.00  0.00    -0.295 N 
ATOM     50  H   GLY A   3     -19.382   5.516   9.869  0.00  0.00    +0.150 HD
ATOM     51  O   LYS A   2     -20.466   6.556   7.074  0.00  0.00    -0.273 OA
BRANCH  48  52
ATOM     52  CA  LYS A   2     -21.628   6.490   9.180  0.00  0.00    +0.149 C 
BRANCH  52  55
ATOM     53  C   GLU A   1     -21.628   8.884   8.768  0.00  0.00    +0.238 C 
ATOM     54  O   GLU A   1     -20.448   8.996   9.132  0.00  0.00    -0.274 OA
ATOM     55  N   LYS A   2     -22.288   7.736   8.818  0.00  0.00    -0.297 N 
ATOM     56  H   LYS A   2     -23.303   7.725   8.593  0.00  0.00    +0.150 HD
BRANCH  53  57
ATOM     57  CA  GLU A   1     -22.403  10.078   8.211  0.00  0.00    +0.145 C 
BRANCH  57  58
ATOM     58  N   GLU A   1     -21.941  11.320   8.822  0.00  0.00    -0.238 NA
ATOM     59  H   GLU A   1     -21.062  11.746   8.466  0.00  0.00    +0.142 HD
ENDBRANCH  57  58
BRANCH  57  60
ATOM     60  CB  GLU A   1     -22.219  10.124   6.688  0.00  0.00    +0.038 C 
BRANCH  60  61
ATOM     61  CG  GLU A   1     -22.909  11.292   5.983  0.00  0.00    +0.116 C 
BRANCH  61  62
ATOM     62  CD  GLU A   1     -24.427  11.195   5.989  0.00  0.00    +0.365 C 
ATOM     63  OE2 GLU A   1     -24.970  10.082   6.158  0.00  0.00    -0.246 OA
ATOM     64  OE1 GLU A   1     -25.090  12.241   5.820  0.00  0.00    -0.246 OA
ENDBRANCH  61  62
ENDBRANCH  60  61
ENDBRANCH  57  60
ENDBRANCH  53  57
ENDBRANCH  52  55
BRANCH  52  65
ATOM     65  CB  LYS A   2     -22.610   5.317   9.110  0.00  0.00    +0.029 C 
BRANCH  65  66
ATOM     66  CG  LYS A   2     -23.739   5.460  10.128  0.00  0.00    +0.000 C 
BRANCH  66  67
ATOM     67  CD  LYS A   2     -24.697   4.279  10.116  0.00  0.00    -0.024 C 
BRANCH  67  68
ATOM     68  CE  LYS A   2     -25.768   4.431  11.187  0.00  0.00    -0.086 C 
BRANCH  68  69
ATOM     69  NZ  LYS A   2     -25.219   4.263  12.562  0.00  0.00    +0.380 N 
ATOM     70  HZ1 LYS A   2     -25.985   4.375  13.256  0.00  0.00    -0.089 HD
ATOM     71  HZ2 LYS A   2     -24.487   4.982  12.732  0.00  0.00    -0.089 HD
ATOM     72  HZ3 LYS A   2     -24.802   3.315  12.654  0.00  0.00    -0.089 HD
ENDBRANCH  68  69
ENDBRANCH  67  68
ENDBRANCH  66  67
ENDBRANCH  65  66
ENDBRANCH  52  65
ENDBRANCH  48  52
ENDBRANCH  47  49
ENDBRANCH  43  47
ENDBRANCH  42  44
BRANCH  42  73
ATOM     73  CB  ASP A   4     -17.139   9.747  10.715  0.00  0.00    +0.143 C 
BRANCH  73  74
ATOM     74  CG  ASP A   4     -17.877  10.819   9.930  0.00  0.00    +0.367 C 
ATOM     75  OD2 ASP A   4     -18.430  11.699  10.611  0.00  0.00    -0.246 OA
ATOM     76  OD1 ASP A   4     -17.893  10.811   8.673  0.00  0.00    -0.246 OA
ENDBRANCH  73  74
ENDBRANCH  42  73
ENDBRANCH   1  42
TORSDOF 35
REMARK  Name = ../refined-set-2016/4ozj/4ozj_pocket.pdb
REMARK  199 active torsions:
REMARK  status: ('A' for Active; 'I' for Inactive)
REMARK    1  A    between atoms: _1  and  _3
REMARK    2  A    between atoms: _3  and  _4
REMARK    3  A    between atoms: _3  and  _6
REMARK    4  A    between atoms: _6  and  _7
REMARK    5  A    between atoms: _7  and  _8
REMARK    6  A    between atoms: _10  and  _12
REMARK    7  A    between atoms: _12  and  _13
REMARK    8  A    between atoms: _16  and  _18
REMARK    9  A    between atoms: _18  and  _19
REMARK   10  A    between atoms: _18  and  _21
REMARK   11  A    between atoms: _21  and  _22
REMARK   12  A    between atoms: _25  and  _27
REMARK   13  A    between atoms: _27  and  _28
REMARK   14  A    between atoms: _27  and  _30
REMARK   15  A    between atoms: _30  and  _31
REMARK   16  A    between atoms: _34  and  _36
REMARK   17  A    between atoms: _36  and  _37
REMARK   18  A    between atoms: _36  and  _39
REMARK   19  A    between atoms: _39  and  _40
REMARK   20  A    between atoms: _40  and  _41
REMARK   21  A    between atoms: _41  and  _42
REMARK   22  A    between atoms: _51  and  _53
REMARK   23  A    between atoms: _53  and  _54
REMARK   24  A    between atoms: _53  and  _56
REMARK   25  A    between atoms: _59  and  _61
REMARK   26  A    between atoms: _61  and  _62
REMARK   27  A    between atoms: _61  and  _64
REMARK   28  A    between atoms: _64  and  _65
REMARK   29  A    between atoms: _67  and  _69
REMARK   30  A    between atoms: _69  and  _70
REMARK   31  A    between atoms: _72  and  _74
REMARK   32  A    between atoms: _74  and  _75
REMARK   33  A    between atoms: _74  and  _77
REMARK   34  A    between atoms: _77  and  _78
REMARK   35  A    between atoms: _78  and  _79
REMARK   36  A    between atoms: _79  and  _80
REMARK   37  A    between atoms: _89  and  _91
REMARK   38  A    between atoms: _91  and  _92
REMARK   39  A    between atoms: _94  and  _96
REMARK   40  A    between atoms: _96  and  _97
REMARK   41  A    between atoms: _96  and  _99
REMARK   42  A    between atoms: _99  and  _100
REMARK   43  A    between atoms: _102  and  _104
REMARK   44  A    between atoms: _104  and  _105
REMARK   45  A    between atoms: _104  and  _107
REMARK   46  A    between atoms: _107  and  _108
REMARK   47  A    between atoms: _111  and  _113
REMARK   48  A    between atoms: _113  and  _114
REMARK   49  A    between atoms: _113  and  _116
REMARK   50  A    between atoms: _116  and  _117
REMARK   51  A    between atoms: _120  and  _122
REMARK   52  A    between atoms: _122  and  _123
REMARK   53  A    between atoms: _122  and  _125
REMARK   54  A    between atoms: _125  and  _126
REMARK   55  A    between atoms: _131  and  _133
REMARK   56  A    between atoms: _133  and  _134
REMARK   57  A    between atoms: _133  and  _136
REMARK   58  A    between atoms: _136  and  _137
REMARK   59  A    between atoms: _137  and  _138
REMARK   60  A    between atoms: _143  and  _145
REMARK   61  A    between atoms: _145  and  _146
REMARK   62  A    between atoms: _145  and  _148
REMARK   63  A    between atoms: _148  and  _149
REMARK   64  A    between atoms: _149  and  _150
REMARK   65  A    between atoms: _150  and  _151
REMARK   66  A    between atoms: _151  and  _152
REMARK   67  A    between atoms: _156  and  _158
REMARK   68  A    between atoms: _158  and  _159
REMARK   69  A    between atoms: _158  and  _161
REMARK   70  A    between atoms: _164  and  _166
REMARK   71  A    between atoms: _166  and  _167
REMARK   72  A    between atoms: _166  and  _169
REMARK   73  A    between atoms: _169  and  _170
REMARK   74  A    between atoms: _170  and  _171
REMARK   75  A    between atoms: _171  and  _172
REMARK   76  A    between atoms: _172  and  _173
REMARK   77  A    between atoms: _177  and  _179
REMARK   78  A    between atoms: _179  and  _180
REMARK   79  A    between atoms: _179  and  _182
REMARK   80  A    between atoms: _182  and  _183
REMARK   81  A    between atoms: _186  and  _188
REMARK   82  A    between atoms: _188  and  _189
REMARK   83  A    between atoms: _188  and  _191
REMARK   84  A    between atoms: _191  and  _192
REMARK   85  A    between atoms: _192  and  _193
REMARK   86  A    between atoms: _196  and  _198
REMARK   87  A    between atoms: _198  and  _199
REMARK   88  A    between atoms: _198  and  _201
REMARK   89  A    between atoms: _201  and  _202
REMARK   90  A    between atoms: _202  and  _203
REMARK   91  A    between atoms: _203  and  _204
REMARK   92  A    between atoms: _204  and  _205
REMARK   93  A    between atoms: _209  and  _211
REMARK   94  A    between atoms: _211  and  _212
REMARK   95  A    between atoms: _214  and  _216
REMARK   96  A    between atoms: _216  and  _217
REMARK   97  A    between atoms: _216  and  _219
REMARK   98  A    between atoms: _219  and  _220
REMARK   99  A    between atoms: _223  and  _225
REMARK  100  A    between atoms: _225  and  _226
REMARK  101  A    between atoms: _228  and  _230
REMARK  102  A    between atoms: _230  and  _231
REMARK  103  A    between atoms: _230  and  _233
REMARK  104  A    between atoms: _233  and  _234
REMARK  105  A    between atoms: _234  and  _235
REMARK  106  A    between atoms: _235  and  _236
REMARK  107  A    between atoms: _236  and  _237
REMARK  108  A    between atoms: _241  and  _243
REMARK  109  A    between atoms: _243  and  _244
REMARK  110  A    between atoms: _243  and  _246
REMARK  111  A    between atoms: _246  and  _247
REMARK  112  A    between atoms: _250  and  _252
REMARK  113  A    between atoms: _252  and  _253
REMARK  114  A    between atoms: _252  and  _255
REMARK  115  A    between atoms: _255  and  _256
REMARK  116  A    between atoms: _262  and  _264
REMARK  117  A    between atoms: _264  and  _265
REMARK  118  A    between atoms: _264  and  _267
REMARK  119  A    between atoms: _267  and  _268
REMARK  120  A    between atoms: _271  and  _273
REMARK  121  A    between atoms: _273  and  _274
REMARK  122  A    between atoms: _273  and  _276
REMARK  123  A    between atoms: _276  and  _277
REMARK  124  A    between atoms: _277  and  _278
REMARK  125  A    between atoms: _278  and  _279
REMARK  126  A    between atoms: _279  and  _280
REMARK  127  A    between atoms: _284  and  _286
REMARK  128  A    between atoms: _286  and  _287
REMARK  129  A    between atoms: _286  and  _289
REMARK  130  A    between atoms: _289  and  _290
REMARK  131  A    between atoms: _293  and  _295
REMARK  132  A    between atoms: _295  and  _296
REMARK  133  A    between atoms: _295  and  _298
REMARK  134  A    between atoms: _301  and  _303
REMARK  135  A    between atoms: _303  and  _304
REMARK  136  A    between atoms: _308  and  _309
REMARK  137  A    between atoms: _314  and  _316
REMARK  138  A    between atoms: _316  and  _317
REMARK  139  A    between atoms: _316  and  _319
REMARK  140  A    between atoms: _319  and  _320
REMARK  141  A    between atoms: _322  and  _324
REMARK  142  A    between atoms: _324  and  _325
REMARK  143  A    between atoms: _324  and  _327
REMARK  144  A    between atoms: _327  and  _328
REMARK  145  A    between atoms: _331  and  _333
REMARK  146  A    between atoms: _333  and  _334
REMARK  147  A    between atoms: _333  and  _336
REMARK  148  A    between atoms: _336  and  _337
REMARK  149  A    between atoms: _340  and  _342
REMARK  150  A    between atoms: _342  and  _343
REMARK  151  A    between atoms: _342  and  _345
REMARK  152  A    between atoms: _348  and  _350
REMARK  153  A    between atoms: _350  and  _351
REMARK  154  A    between atoms: _350  and  _353
REMARK  155  A    between atoms: _356  and  _358
REMARK  156  A    between atoms: _358  and  _359
REMARK  157  A    between atoms: _358  and  _361
REMARK  158  A    between atoms: _361  and  _362
REMARK  159  A    between atoms: _362  and  _363
REMARK  160  A    between atoms: _366  and  _368
REMARK  161  A    between atoms: _368  and  _369
REMARK  162  A    between atoms: _368  and  _371
REMARK  163  A    between atoms: _373  and  _375
REMARK  164  A    between atoms: _375  and  _376
REMARK  165  A    between atoms: _375  and  _378
REMARK  166  A    between atoms: _381  and  _383
REMARK  167  A    between atoms: _383  and  _384
REMARK  168  A    between atoms: _383  and  _386
REMARK  169  A    between atoms: _389  and  _391
REMARK  170  A    between atoms: _391  and  _392
REMARK  171  A    between atoms: _395  and  _397
REMARK  172  A    between atoms: _397  and  _398
REMARK  173  A    between atoms: _401  and  _403
REMARK  174  A    between atoms: _403  and  _404
REMARK  175  A    between atoms: _403  and  _406
REMARK  176  A    between atoms: _406  and  _407
REMARK  177  A    between atoms: _410  and  _412
REMARK  178  A    between atoms: _412  and  _413
REMARK  179  A    between atoms: _412  and  _415
REMARK  180  A    between atoms: _415  and  _416
REMARK  181  A    between atoms: _416  and  _417
REMARK  182  A    between atoms: _422  and  _424
REMARK  183  A    between atoms: _424  and  _425
REMARK  184  A    between atoms: _424  and  _427
REMARK  185  A    between atoms: _430  and  _432
REMARK  186  A    between atoms: _432  and  _433
REMARK  187  A    between atoms: _432  and  _435
REMARK  188  A    between atoms: _435  and  _436
REMARK  189  A    between atoms: _436  and  _437
REMARK  190  A    between atoms: _437  and  _438
REMARK  191  A    between atoms: _447  and  _449
REMARK  192  A    between atoms: _449  and  _450
REMARK  193  A    between atoms: _449  and  _452
REMARK  194  A    between atoms: _452  and  _453
REMARK  195  A    between atoms: _456  and  _458
REMARK  196  A    between atoms: _458  and  _459
REMARK  197  A    between atoms: _462  and  _464
REMARK  198  A    between atoms: _464  and  _465
REMARK  199  A    between atoms: _464  and  _467
REMARK                            x       y       z     vdW  Elec       q    Type
REMARK                         _______ _______ _______ _____ _____    ______ ____
ROOT
ATOM      1  CA  LYS A   2      -7.926  -3.522  23.907  0.00  0.00    +0.149 C 
ENDROOT
BRANCH   1   4
ATOM      2  C   ILE A   1      -9.089  -1.972  25.406  0.00  0.00    +0.238 C 
ATOM      3  O   ILE A   1      -8.059  -1.689  26.023  0.00  0.00    -0.274 OA
ATOM      4  N   LYS A   2      -9.125  -2.840  24.397  0.00  0.00    -0.297 N 
ATOM      5  H   LYS A   2     -10.038  -3.041  23.941  0.00  0.00    +0.150 HD
BRANCH   2   6
ATOM      6  CA  ILE A   1     -10.414  -1.327  25.798  0.00  0.00    +0.145 C 
BRANCH   6   7
ATOM      7  N   ILE A   1     -10.415  -1.255  27.252  0.00  0.00    -0.238 NA
ATOM      8  H   ILE A   1      -9.607  -0.795  27.718  0.00  0.00    +0.142 HD
ENDBRANCH   6   7
BRANCH   6   9
ATOM      9  CB  ILE A   1     -10.467   0.084  25.169  0.00  0.00    +0.025 C 
ATOM     10  CG2 ILE A   1     -10.605   0.006  23.656  0.00  0.00    +0.002 C 
BRANCH   9  11
ATOM     11  CG1 ILE A   1     -11.636   0.892  25.749  0.00  0.00    +0.002 C 
ATOM     12  CD1 ILE A   1     -11.552   2.379  25.448  0.00  0.00    +0.000 C 
ENDBRANCH   9  11
ENDBRANCH   6   9
ENDBRANCH   2   6
ENDBRANCH   1   4
BRANCH   1  13
ATOM     13  C   LYS A   2      -7.861  -3.484  22.400  0.00  0.00    +0.241 C 
ATOM     14  N   LEU A   3      -6.632  -3.465  21.877  0.00  0.00    -0.297 N 
ATOM     15  H   LEU A   3      -5.823  -3.353  22.520  0.00  0.00    +0.150 HD
ATOM     16  O   LYS A   2      -8.889  -3.480  21.732  0.00  0.00    -0.273 OA
BRANCH  14  17
ATOM     17  CA  LEU A   3      -6.372  -3.592  20.462  0.00  0.00    +0.149 C 
BRANCH  17  18
ATOM     18  C   LEU A   3      -5.849  -5.001  20.199  0.00  0.00    +0.241 C 
ATOM     19  O   LEU A   3      -4.842  -5.423  20.786  0.00  0.00    -0.273 OA
ATOM     20  N   VAL A   4      -6.551  -5.727  19.338  0.00  0.00    -0.298 N 
ATOM     21  H   VAL A   4      -7.453  -5.349  18.983  0.00  0.00    +0.150 HD
BRANCH  20  22
ATOM     22  CA  VAL A   4      -6.107  -7.029  18.873  0.00  0.00    +0.137 C 
BRANCH  22  23
ATOM     23  CB  VAL A   4      -7.266  -8.033  18.792  0.00  0.00    +0.026 C 
ATOM     24  CG2 VAL A   4      -7.961  -8.125  20.145  0.00  0.00    +0.002 C 
ATOM     25  CG1 VAL A   4      -6.748  -9.403  18.354  0.00  0.00    +0.002 C 
ENDBRANCH  22  23
BRANCH  22  26
ATOM     26  C   VAL A   4      -5.504  -6.815  17.494  0.00  0.00    +0.227 C 
ATOM     27  O   VAL A   4      -6.174  -6.338  16.597  0.00  0.00    -0.286 OA
ENDBRANCH  22  26
ENDBRANCH  20  22
ENDBRANCH  17  18
BRANCH  17  28
ATOM     28  CB  LEU A   3      -5.322  -2.568  19.999  0.00  0.00    +0.029 C 
BRANCH  28  29
ATOM     29  CG  LEU A   3      -4.704  -2.798  18.613  0.00  0.00    +0.002 C 
ATOM     30  CD2 LEU A   3      -3.568  -1.815  18.363  0.00  0.00    +0.000 C 
ATOM     31  CD1 LEU A   3      -5.753  -2.685  17.529  0.00  0.00    +0.000 C 
ENDBRANCH  28  29
ENDBRANCH  17  28
ENDBRANCH  14  17
ENDBRANCH   1  13
BRANCH   1  32
ATOM     32  CB  LYS A   2      -7.918  -4.996  24.334  0.00  0.00    +0.029 C 
BRANCH  32  33
ATOM     33  CG  LYS A   2      -8.099  -5.242  25.813  0.00  0.00    +0.000 C 
BRANCH  33  34
ATOM     34  CD  LYS A   2      -6.914  -4.783  26.630  0.00  0.00    -0.024 C 
BRANCH  34  35
ATOM     35  CE  LYS A   2      -7.175  -4.991  28.111  0.00  0.00    -0.086 C 
BRANCH  35  36
ATOM     36  NZ  LYS A   2      -6.179  -4.280  28.954  0.00  0.00    +0.380 N 
ATOM     37  HZ1 LYS A   2      -6.393  -4.448  29.958  0.00  0.00    -0.089 HD
ATOM     38  HZ2 LYS A   2      -6.223  -3.260  28.755  0.00  0.00    -0.089 HD
ATOM     39  HZ3 LYS A   2      -5.226  -4.636  28.737  0.00  0.00    -0.089 HD
ENDBRANCH  35  36
ENDBRANCH  34  35
ENDBRANCH  33  34
ENDBRANCH  32  33
ENDBRANCH   1  32
TORSDOF 18
REMARK  Name = ../refined-set-2016/4ozj/4ozj_pocket.pdb
REMARK  199 active torsions:
REMARK  status: ('A' for Active; 'I' for Inactive)
REMARK    1  A    between atoms: _1  and  _3
REMARK    2  A    between atoms: _3  and  _4
REMARK    3  A    between atoms: _3  and  _6
REMARK    4  A    between atoms: _6  and  _7
REMARK    5  A    between atoms: _7  and  _8
REMARK    6  A    between atoms: _10  and  _12
REMARK    7  A    between atoms: _12  and  _13
REMARK    8  A    between atoms: _16  and  _18
REMARK    9  A    between atoms: _18  and  _19
REMARK   10  A    between atoms: _18  and  _21
REMARK   11  A    between atoms: _21  and  _22
REMARK   12  A    between atoms: _25  and  _27
REMARK   13  A    between atoms: _27  and  _28
REMARK   14  A    between atoms: _27  and  _30
REMARK   15  A    between atoms: _30  and  _31
REMARK   16  A    between atoms: _34  and  _36
REMARK   17  A    between atoms: _36  and  _37
REMARK   18  A    between atoms: _36  and  _39
REMARK   19  A    between atoms: _39  and  _40
REMARK   20  A    between atoms: _40  and  _41
REMARK   21  A    between atoms: _41  and  _42
REMARK   22  A    between atoms: _51  and  _53
REMARK   23  A    between atoms: _53  and  _54
REMARK   24  A    between atoms: _53  and  _56
REMARK   25  A    between atoms: _59  and  _61
REMARK   26  A    between atoms: _61  and  _62
REMARK   27  A    between atoms: _61  and  _64
REMARK   28  A    between atoms: _64  and  _65
REMARK   29  A    between atoms: _67  and  _69
REMARK   30  A    between atoms: _69  and  _70
REMARK   31  A    between atoms: _72  and  _74
REMARK   32  A    between atoms: _74  and  _75
REMARK   33  A    between atoms: _74  and  _77
REMARK   34  A    between atoms: _77  and  _78
REMARK   35  A    between atoms: _78  and  _79
REMARK   36  A    between atoms: _79  and  _80
REMARK   37  A    between atoms: _89  and  _91
REMARK   38  A    between atoms: _91  and  _92
REMARK   39  A    between atoms: _94  and  _96
REMARK   40  A    between atoms: _96  and  _97
REMARK   41  A    between atoms: _96  and  _99
REMARK   42  A    between atoms: _99  and  _100
REMARK   43  A    between atoms: _102  and  _104
REMARK   44  A    between atoms: _104  and  _105
REMARK   45  A    between atoms: _104  and  _107
REMARK   46  A    between atoms: _107  and  _108
REMARK   47  A    between atoms: _111  and  _113
REMARK   48  A    between atoms: _113  and  _114
REMARK   49  A    between atoms: _113  and  _116
REMARK   50  A    between atoms: _116  and  _117
REMARK   51  A    between atoms: _120  and  _122
REMARK   52  A    between atoms: _122  and  _123
REMARK   53  A    between atoms: _122  and  _125
REMARK   54  A    between atoms: _125  and  _126
REMARK   55  A    between atoms: _131  and  _133
REMARK   56  A    between atoms: _133  and  _134
REMARK   57  A    between atoms: _133  and  _136
REMARK   58  A    between atoms: _136  and  _137
REMARK   59  A    between atoms: _137  and  _138
REMARK   60  A    between atoms: _143  and  _145
REMARK   61  A    between atoms: _145  and  _146
REMARK   62  A    between atoms: _145  and  _148
REMARK   63  A    between atoms: _148  and  _149
REMARK   64  A    between atoms: _149  and  _150
REMARK   65  A    between atoms: _150  and  _151
REMARK   66  A    between atoms: _151  and  _152
REMARK   67  A    between atoms: _156  and  _158
REMARK   68  A    between atoms: _158  and  _159
REMARK   69  A    between atoms: _158  and  _161
REMARK   70  A    between atoms: _164  and  _166
REMARK   71  A    between atoms: _166  and  _167
REMARK   72  A    between atoms: _166  and  _169
REMARK   73  A    between atoms: _169  and  _170
REMARK   74  A    between atoms: _170  and  _171
REMARK   75  A    between atoms: _171  and  _172
REMARK   76  A    between atoms: _172  and  _173
REMARK   77  A    between atoms: _177  and  _179
REMARK   78  A    between atoms: _179  and  _180
REMARK   79  A    between atoms: _179  and  _182
REMARK   80  A    between atoms: _182  and  _183
REMARK   81  A    between atoms: _186  and  _188
REMARK   82  A    between atoms: _188  and  _189
REMARK   83  A    between atoms: _188  and  _191
REMARK   84  A    between atoms: _191  and  _192
REMARK   85  A    between atoms: _192  and  _193
REMARK   86  A    between atoms: _196  and  _198
REMARK   87  A    between atoms: _198  and  _199
REMARK   88  A    between atoms: _198  and  _201
REMARK   89  A    between atoms: _201  and  _202
REMARK   90  A    between atoms: _202  and  _203
REMARK   91  A    between atoms: _203  and  _204
REMARK   92  A    between atoms: _204  and  _205
REMARK   93  A    between atoms: _209  and  _211
REMARK   94  A    between atoms: _211  and  _212
REMARK   95  A    between atoms: _214  and  _216
REMARK   96  A    between atoms: _216  and  _217
REMARK   97  A    between atoms: _216  and  _219
REMARK   98  A    between atoms: _219  and  _220
REMARK   99  A    between atoms: _223  and  _225
REMARK  100  A    between atoms: _225  and  _226
REMARK  101  A    between atoms: _228  and  _230
REMARK  102  A    between atoms: _230  and  _231
REMARK  103  A    between atoms: _230  and  _233
REMARK  104  A    between atoms: _233  and  _234
REMARK  105  A    between atoms: _234  and  _235
REMARK  106  A    between atoms: _235  and  _236
REMARK  107  A    between atoms: _236  and  _237
REMARK  108  A    between atoms: _241  and  _243
REMARK  109  A    between atoms: _243  and  _244
REMARK  110  A    between atoms: _243  and  _246
REMARK  111  A    between atoms: _246  and  _247
REMARK  112  A    between atoms: _250  and  _252
REMARK  113  A    between atoms: _252  and  _253
REMARK  114  A    between atoms: _252  and  _255
REMARK  115  A    between atoms: _255  and  _256
REMARK  116  A    between atoms: _262  and  _264
REMARK  117  A    between atoms: _264  and  _265
REMARK  118  A    between atoms: _264  and  _267
REMARK  119  A    between atoms: _267  and  _268
REMARK  120  A    between atoms: _271  and  _273
REMARK  121  A    between atoms: _273  and  _274
REMARK  122  A    between atoms: _273  and  _276
REMARK  123  A    between atoms: _276  and  _277
REMARK  124  A    between atoms: _277  and  _278
REMARK  125  A    between atoms: _278  and  _279
REMARK  126  A    between atoms: _279  and  _280
REMARK  127  A    between atoms: _284  and  _286
REMARK  128  A    between atoms: _286  and  _287
REMARK  129  A    between atoms: _286  and  _289
REMARK  130  A    between atoms: _289  and  _290
REMARK  131  A    between atoms: _293  and  _295
REMARK  132  A    between atoms: _295  and  _296
REMARK  133  A    between atoms: _295  and  _298
REMARK  134  A    between atoms: _301  and  _303
REMARK  135  A    between atoms: _303  and  _304
REMARK  136  A    between atoms: _308  and  _309
REMARK  137  A    between atoms: _314  and  _316
REMARK  138  A    between atoms: _316  and  _317
REMARK  139  A    between atoms: _316  and  _319
REMARK  140  A    between atoms: _319  and  _320
REMARK  141  A    between atoms: _322  and  _324
REMARK  142  A    between atoms: _324  and  _325
REMARK  143  A    between atoms: _324  and  _327
REMARK  144  A    between atoms: _327  and  _328
REMARK  145  A    between atoms: _331  and  _333
REMARK  146  A    between atoms: _333  and  _334
REMARK  147  A    between atoms: _333  and  _336
REMARK  148  A    between atoms: _336  and  _337
REMARK  149  A    between atoms: _340  and  _342
REMARK  150  A    between atoms: _342  and  _343
REMARK  151  A    between atoms: _342  and  _345
REMARK  152  A    between atoms: _348  and  _350
REMARK  153  A    between atoms: _350  and  _351
REMARK  154  A    between atoms: _350  and  _353
REMARK  155  A    between atoms: _356  and  _358
REMARK  156  A    between atoms: _358  and  _359
REMARK  157  A    between atoms: _358  and  _361
REMARK  158  A    between atoms: _361  and  _362
REMARK  159  A    between atoms: _362  and  _363
REMARK  160  A    between atoms: _366  and  _368
REMARK  161  A    between atoms: _368  and  _369
REMARK  162  A    between atoms: _368  and  _371
REMARK  163  A    between atoms: _373  and  _375
REMARK  164  A    between atoms: _375  and  _376
REMARK  165  A    between atoms: _375  and  _378
REMARK  166  A    between atoms: _381  and  _383
REMARK  167  A    between atoms: _383  and  _384
REMARK  168  A    between atoms: _383  and  _386
REMARK  169  A    between atoms: _389  and  _391
REMARK  170  A    between atoms: _391  and  _392
REMARK  171  A    between atoms: _395  and  _397
REMARK  172  A    between atoms: _397  and  _398
REMARK  173  A    between atoms: _401  and  _403
REMARK  174  A    between atoms: _403  and  _404
REMARK  175  A    between atoms: _403  and  _406
REMARK  176  A    between atoms: _406  and  _407
REMARK  177  A    between atoms: _410  and  _412
REMARK  178  A    between atoms: _412  and  _413
REMARK  179  A    between atoms: _412  and  _415
REMARK  180  A    between atoms: _415  and  _416
REMARK  181  A    between atoms: _416  and  _417
REMARK  182  A    between atoms: _422  and  _424
REMARK  183  A    between atoms: _424  and  _425
REMARK  184  A    between atoms: _424  and  _427
REMARK  185  A    between atoms: _430  and  _432
REMARK  186  A    between atoms: _432  and  _433
REMARK  187  A    between atoms: _432  and  _435
REMARK  188  A    between atoms: _435  and  _436
REMARK  189  A    between atoms: _436  and  _437
REMARK  190  A    between atoms: _437  and  _438
REMARK  191  A    between atoms: _447  and  _449
REMARK  192  A    between atoms: _449  and  _450
REMARK  193  A    between atoms: _449  and  _452
REMARK  194  A    between atoms: _452  and  _453
REMARK  195  A    between atoms: _456  and  _458
REMARK  196  A    between atoms: _458  and  _459
REMARK  197  A    between atoms: _462  and  _464
REMARK  198  A    between atoms: _464  and  _465
REMARK  199  A    between atoms: _464  and  _467
REMARK                            x       y       z     vdW  Elec       q    Type
REMARK                         _______ _______ _______ _____ _____    ______ ____
ROOT
ATOM      1  CA  LEU A   4     -11.787  -4.185  11.660  0.00  0.00    +0.149 C 
ENDROOT
BRANCH   1   4
ATOM      2  C   SER A   3     -13.850  -4.333  12.931  0.00  0.00    +0.243 C 
ATOM      3  O   SER A   3     -13.296  -4.961  13.819  0.00  0.00    -0.273 OA
ATOM      4  N   LEU A   4     -13.218  -3.903  11.848  0.00  0.00    -0.297 N 
ATOM      5  H   LEU A   4     -13.737  -3.363  11.127  0.00  0.00    +0.150 HD
BRANCH   2   6
ATOM      6  CA  SER A   3     -15.315  -3.976  13.053  0.00  0.00    +0.178 C 
BRANCH   6   8
ATOM      7  C   PRO A   2     -16.229  -6.223  12.607  0.00  0.00    +0.241 C 
ATOM      8  N   SER A   3     -16.139  -5.146  13.397  0.00  0.00    -0.295 N 
ATOM      9  H   SER A   3     -16.673  -5.136  14.290  0.00  0.00    +0.150 HD
ATOM     10  O   PRO A   2     -15.577  -6.363  11.571  0.00  0.00    -0.273 OA
BRANCH   7  17
ATOM     11  C   ALA A   1     -16.633  -7.821  15.323  0.00  0.00    +0.241 C 
ATOM     12  O   ALA A   1     -15.463  -8.049  15.017  0.00  0.00    -0.273 OA
ATOM     13  N   PRO A   2     -17.548  -7.405  14.430  0.00  0.00    -0.272 N 
ATOM     14  CD  PRO A   2     -18.934  -6.967  14.692  0.00  0.00    +0.094 C 
ATOM     15  CG  PRO A   2     -19.361  -6.364  13.383  0.00  0.00    +0.024 C 
ATOM     16  CB  PRO A   2     -18.570  -7.088  12.345  0.00  0.00    +0.031 C 
ATOM     17  CA  PRO A   2     -17.213  -7.334  13.009  0.00  0.00    +0.152 C 
BRANCH  11  18
ATOM     18  CA  ALA A   1     -17.102  -8.015  16.758  0.00  0.00    +0.145 C 
ATOM     19  CB  ALA A   1     -15.923  -8.300  17.683  0.00  0.00    +0.028 C 
BRANCH  18  20
ATOM     20  N   ALA A   1     -18.025  -9.140  16.788  0.00  0.00    -0.238 NA
ATOM     21  H   ALA A   1     -17.776 -10.004  16.266  0.00  0.00    +0.142 HD
ENDBRANCH  18  20
ENDBRANCH  11  18
ENDBRANCH   7  17
ENDBRANCH   6   8
BRANCH   6  22
ATOM     22  CB  SER A   3     -15.418  -2.882  14.121  0.00  0.00    +0.166 C 
BRANCH  22  23
ATOM     23  OG  SER A   3     -16.734  -2.394  14.233  0.00  0.00    -0.380 OA
ATOM     24  H   SER A   3     -17.340  -3.136  14.484  0.00  0.00    +0.211 HD
ENDBRANCH  22  23
ENDBRANCH   6  22
ENDBRANCH   2   6
ENDBRANCH   1   4
BRANCH   1  25
ATOM     25  C   LEU A   4     -11.184  -3.210  10.686  0.00  0.00    +0.241 C 
ATOM     26  N   THR A   5      -9.864  -3.060  10.824  0.00  0.00    -0.295 N 
ATOM     27  H   THR A   5      -9.399  -3.505  11.641  0.00  0.00    +0.150 HD
ATOM     28  O   LEU A   4     -11.875  -2.660   9.822  0.00  0.00    -0.273 OA
BRANCH  26  29
ATOM     29  CA  THR A   5      -9.045  -2.306   9.890  0.00  0.00    +0.176 C 
BRANCH  29  30
ATOM     30  C   THR A   5      -7.930  -3.254   9.394  0.00  0.00    +0.243 C 
ATOM     31  O   THR A   5      -7.281  -3.930  10.189  0.00  0.00    -0.273 OA
ATOM     32  N   VAL A   6      -7.780  -3.305   8.084  0.00  0.00    -0.298 N 
ATOM     33  H   VAL A   6      -8.394  -2.699   7.504  0.00  0.00    +0.150 HD
BRANCH  32  34
ATOM     34  CA  VAL A   6      -6.812  -4.153   7.389  0.00  0.00    +0.137 C 
BRANCH  34  35
ATOM     35  CB  VAL A   6      -7.521  -4.951   6.269  0.00  0.00    +0.026 C 
ATOM     36  CG2 VAL A   6      -8.571  -5.885   6.884  0.00  0.00    +0.002 C 
ATOM     37  CG1 VAL A   6      -6.526  -5.726   5.407  0.00  0.00    +0.002 C 
ENDBRANCH  34  35
BRANCH  34  38
ATOM     38  C   VAL A   6      -5.713  -3.307   6.744  0.00  0.00    +0.227 C 
ATOM     39  O   VAL A   6      -5.996  -2.358   6.027  0.00  0.00    -0.286 OA
ENDBRANCH  34  38
ENDBRANCH  32  34
ENDBRANCH  29  30
BRANCH  29  40
ATOM     40  CB  THR A   5      -8.461  -1.061  10.580  0.00  0.00    +0.137 C 
ATOM     41  CG2 THR A   5      -7.538  -0.307   9.665  0.00  0.00    +0.034 C 
BRANCH  40  42
ATOM     42  OG1 THR A   5      -9.531  -0.174  10.938  0.00  0.00    -0.382 OA
ATOM     43  HG1 THR A   5     -10.021   0.097  10.121  0.00  0.00    +0.210 HD
ENDBRANCH  40  42
ENDBRANCH  29  40
ENDBRANCH  26  29
ENDBRANCH   1  25
BRANCH   1  44
ATOM     44  CB  LEU A   4     -11.568  -5.643  11.184  0.00  0.00    +0.029 C 
BRANCH  44  45
ATOM     45  CG  LEU A   4     -11.662  -5.965   9.686  0.00  0.00    +0.002 C 
ATOM     46  CD2 LEU A   4     -11.030  -7.313   9.346  0.00  0.00    +0.000 C 
ATOM     47  CD1 LEU A   4     -13.096  -5.933   9.245  0.00  0.00    +0.000 C 
ENDBRANCH  44  45
ENDBRANCH   1  44
TORSDOF 18
REMARK  Name = ../refined-set-2016/4ozj/4ozj_pocket.pdb
REMARK  199 active torsions:
REMARK  status: ('A' for Active; 'I' for Inactive)
REMARK    1  A    between atoms: _1  and  _3
REMARK    2  A    between atoms: _3  and  _4
REMARK    3  A    between atoms: _3  and  _6
REMARK    4  A    between atoms: _6  and  _7
REMARK    5  A    between atoms: _7  and  _8
REMARK    6  A    between atoms: _10  and  _12
REMARK    7  A    between atoms: _12  and  _13
REMARK    8  A    between atoms: _16  and  _18
REMARK    9  A    between atoms: _18  and  _19
REMARK   10  A    between atoms: _18  and  _21
REMARK   11  A    between atoms: _21  and  _22
REMARK   12  A    between atoms: _25  and  _27
REMARK   13  A    between atoms: _27  and  _28
REMARK   14  A    between atoms: _27  and  _30
REMARK   15  A    between atoms: _30  and  _31
REMARK   16  A    between atoms: _34  and  _36
REMARK   17  A    between atoms: _36  and  _37
REMARK   18  A    between atoms: _36  and  _39
REMARK   19  A    between atoms: _39  and  _40
REMARK   20  A    between atoms: _40  and  _41
REMARK   21  A    between atoms: _41  and  _42
REMARK   22  A    between atoms: _51  and  _53
REMARK   23  A    between atoms: _53  and  _54
REMARK   24  A    between atoms: _53  and  _56
REMARK   25  A    between atoms: _59  and  _61
REMARK   26  A    between atoms: _61  and  _62
REMARK   27  A    between atoms: _61  and  _64
REMARK   28  A    between atoms: _64  and  _65
REMARK   29  A    between atoms: _67  and  _69
REMARK   30  A    between atoms: _69  and  _70
REMARK   31  A    between atoms: _72  and  _74
REMARK   32  A    between atoms: _74  and  _75
REMARK   33  A    between atoms: _74  and  _77
REMARK   34  A    between atoms: _77  and  _78
REMARK   35  A    between atoms: _78  and  _79
REMARK   36  A    between atoms: _79  and  _80
REMARK   37  A    between atoms: _89  and  _91
REMARK   38  A    between atoms: _91  and  _92
REMARK   39  A    between atoms: _94  and  _96
REMARK   40  A    between atoms: _96  and  _97
REMARK   41  A    between atoms: _96  and  _99
REMARK   42  A    between atoms: _99  and  _100
REMARK   43  A    between atoms: _102  and  _104
REMARK   44  A    between atoms: _104  and  _105
REMARK   45  A    between atoms: _104  and  _107
REMARK   46  A    between atoms: _107  and  _108
REMARK   47  A    between atoms: _111  and  _113
REMARK   48  A    between atoms: _113  and  _114
REMARK   49  A    between atoms: _113  and  _116
REMARK   50  A    between atoms: _116  and  _117
REMARK   51  A    between atoms: _120  and  _122
REMARK   52  A    between atoms: _122  and  _123
REMARK   53  A    between atoms: _122  and  _125
REMARK   54  A    between atoms: _125  and  _126
REMARK   55  A    between atoms: _131  and  _133
REMARK   56  A    between atoms: _133  and  _134
REMARK   57  A    between atoms: _133  and  _136
REMARK   58  A    between atoms: _136  and  _137
REMARK   59  A    between atoms: _137  and  _138
REMARK   60  A    between atoms: _143  and  _145
REMARK   61  A    between atoms: _145  and  _146
REMARK   62  A    between atoms: _145  and  _148
REMARK   63  A    between atoms: _148  and  _149
REMARK   64  A    between atoms: _149  and  _150
REMARK   65  A    between atoms: _150  and  _151
REMARK   66  A    between atoms: _151  and  _152
REMARK   67  A    between atoms: _156  and  _158
REMARK   68  A    between atoms: _158  and  _159
REMARK   69  A    between atoms: _158  and  _161
REMARK   70  A    between atoms: _164  and  _166
REMARK   71  A    between atoms: _166  and  _167
REMARK   72  A    between atoms: _166  and  _169
REMARK   73  A    between atoms: _169  and  _170
REMARK   74  A    between atoms: _170  and  _171
REMARK   75  A    between atoms: _171  and  _172
REMARK   76  A    between atoms: _172  and  _173
REMARK   77  A    between atoms: _177  and  _179
REMARK   78  A    between atoms: _179  and  _180
REMARK   79  A    between atoms: _179  and  _182
REMARK   80  A    between atoms: _182  and  _183
REMARK   81  A    between atoms: _186  and  _188
REMARK   82  A    between atoms: _188  and  _189
REMARK   83  A    between atoms: _188  and  _191
REMARK   84  A    between atoms: _191  and  _192
REMARK   85  A    between atoms: _192  and  _193
REMARK   86  A    between atoms: _196  and  _198
REMARK   87  A    between atoms: _198  and  _199
REMARK   88  A    between atoms: _198  and  _201
REMARK   89  A    between atoms: _201  and  _202
REMARK   90  A    between atoms: _202  and  _203
REMARK   91  A    between atoms: _203  and  _204
REMARK   92  A    between atoms: _204  and  _205
REMARK   93  A    between atoms: _209  and  _211
REMARK   94  A    between atoms: _211  and  _212
REMARK   95  A    between atoms: _214  and  _216
REMARK   96  A    between atoms: _216  and  _217
REMARK   97  A    between atoms: _216  and  _219
REMARK   98  A    between atoms: _219  and  _220
REMARK   99  A    between atoms: _223  and  _225
REMARK  100  A    between atoms: _225  and  _226
REMARK  101  A    between atoms: _228  and  _230
REMARK  102  A    between atoms: _230  and  _231
REMARK  103  A    between atoms: _230  and  _233
REMARK  104  A    between atoms: _233  and  _234
REMARK  105  A    between atoms: _234  and  _235
REMARK  106  A    between atoms: _235  and  _236
REMARK  107  A    between atoms: _236  and  _237
REMARK  108  A    between atoms: _241  and  _243
REMARK  109  A    between atoms: _243  and  _244
REMARK  110  A    between atoms: _243  and  _246
REMARK  111  A    between atoms: _246  and  _247
REMARK  112  A    between atoms: _250  and  _252
REMARK  113  A    between atoms: _252  and  _253
REMARK  114  A    between atoms: _252  and  _255
REMARK  115  A    between atoms: _255  and  _256
REMARK  116  A    between atoms: _262  and  _264
REMARK  117  A    between atoms: _264  and  _265
REMARK  118  A    between atoms: _264  and  _267
REMARK  119  A    between atoms: _267  and  _268
REMARK  120  A    between atoms: _271  and  _273
REMARK  121  A    between atoms: _273  and  _274
REMARK  122  A    between atoms: _273  and  _276
REMARK  123  A    between atoms: _276  and  _277
REMARK  124  A    between atoms: _277  and  _278
REMARK  125  A    between atoms: _278  and  _279
REMARK  126  A    between atoms: _279  and  _280
REMARK  127  A    between atoms: _284  and  _286
REMARK  128  A    between atoms: _286  and  _287
REMARK  129  A    between atoms: _286  and  _289
REMARK  130  A    between atoms: _289  and  _290
REMARK  131  A    between atoms: _293  and  _295
REMARK  132  A    between atoms: _295  and  _296
REMARK  133  A    between atoms: _295  and  _298
REMARK  134  A    between atoms: _301  and  _303
REMARK  135  A    between atoms: _303  and  _304
REMARK  136  A    between atoms: _308  and  _309
REMARK  137  A    between atoms: _314  and  _316
REMARK  138  A    between atoms: _316  and  _317
REMARK  139  A    between atoms: _316  and  _319
REMARK  140  A    between atoms: _319  and  _320
REMARK  141  A    between atoms: _322  and  _324
REMARK  142  A    between atoms: _324  and  _325
REMARK  143  A    between atoms: _324  and  _327
REMARK  144  A    between atoms: _327  and  _328
REMARK  145  A    between atoms: _331  and  _333
REMARK  146  A    between atoms: _333  and  _334
REMARK  147  A    between atoms: _333  and  _336
REMARK  148  A    between atoms: _336  and  _337
REMARK  149  A    between atoms: _340  and  _342
REMARK  150  A    between atoms: _342  and  _343
REMARK  151  A    between atoms: _342  and  _345
REMARK  152  A    between atoms: _348  and  _350
REMARK  153  A    between atoms: _350  and  _351
REMARK  154  A    between atoms: _350  and  _353
REMARK  155  A    between atoms: _356  and  _358
REMARK  156  A    between atoms: _358  and  _359
REMARK  157  A    between atoms: _358  and  _361
REMARK  158  A    between atoms: _361  and  _362
REMARK  159  A    between atoms: _362  and  _363
REMARK  160  A    between atoms: _366  and  _368
REMARK  161  A    between atoms: _368  and  _369
REMARK  162  A    between atoms: _368  and  _371
REMARK  163  A    between atoms: _373  and  _375
REMARK  164  A    between atoms: _375  and  _376
REMARK  165  A    between atoms: _375  and  _378
REMARK  166  A    between atoms: _381  and  _383
REMARK  167  A    between atoms: _383  and  _384
REMARK  168  A    between atoms: _383  and  _386
REMARK  169  A    between atoms: _389  and  _391
REMARK  170  A    between atoms: _391  and  _392
REMARK  171  A    between atoms: _395  and  _397
REMARK  172  A    between atoms: _397  and  _398
REMARK  173  A    between atoms: _401  and  _403
REMARK  174  A    between atoms: _403  and  _404
REMARK  175  A    between atoms: _403  and  _406
REMARK  176  A    between atoms: _406  and  _407
REMARK  177  A    between atoms: _410  and  _412
REMARK  178  A    between atoms: _412  and  _413
REMARK  179  A    between atoms: _412  and  _415
REMARK  180  A    between atoms: _415  and  _416
REMARK  181  A    between atoms: _416  and  _417
REMARK  182  A    between atoms: _422  and  _424
REMARK  183  A    between atoms: _424  and  _425
REMARK  184  A    between atoms: _424  and  _427
REMARK  185  A    between atoms: _430  and  _432
REMARK  186  A    between atoms: _432  and  _433
REMARK  187  A    between atoms: _432  and  _435
REMARK  188  A    between atoms: _435  and  _436
REMARK  189  A    between atoms: _436  and  _437
REMARK  190  A    between atoms: _437  and  _438
REMARK  191  A    between atoms: _447  and  _449
REMARK  192  A    between atoms: _449  and  _450
REMARK  193  A    between atoms: _449  and  _452
REMARK  194  A    between atoms: _452  and  _453
REMARK  195  A    between atoms: _456  and  _458
REMARK  196  A    between atoms: _458  and  _459
REMARK  197  A    between atoms: _462  and  _464
REMARK  198  A    between atoms: _464  and  _465
REMARK  199  A    between atoms: _464  and  _467
REMARK                            x       y       z     vdW  Elec       q    Type
REMARK                         _______ _______ _______ _____ _____    ______ ____
ROOT
ATOM      1  C   CYS A   3      -9.636  -4.292  17.351  0.00  0.00    +0.242 C 
ATOM      2  O   CYS A   3      -9.015  -4.892  18.236  0.00  0.00    -0.273 OA
ATOM      3  N   VAL A   4     -10.247  -3.129  17.566  0.00  0.00    -0.297 N 
ATOM      4  H   VAL A   4     -10.683  -2.620  16.771  0.00  0.00    +0.150 HD
ENDROOT
BRANCH   3   5
ATOM      5  CA  VAL A   4     -10.308  -2.568  18.899  0.00  0.00    +0.149 C 
BRANCH   5   6
ATOM      6  C   VAL A   4     -11.619  -3.067  19.509  0.00  0.00    +0.241 C 
ATOM      7  N   VAL A   5     -11.523  -3.609  20.720  0.00  0.00    -0.297 N 
ATOM      8  H   VAL A   5     -10.605  -3.577  21.207  0.00  0.00    +0.150 HD
ATOM      9  O   VAL A   4     -12.686  -2.978  18.882  0.00  0.00    -0.273 OA
BRANCH   7  10
ATOM     10  CA  VAL A   5     -12.648  -4.246  21.395  0.00  0.00    +0.149 C 
BRANCH  10  11
ATOM     11  C   VAL A   5     -12.803  -3.738  22.823  0.00  0.00    +0.241 C 
ATOM     12  O   VAL A   5     -11.831  -3.322  23.465  0.00  0.00    -0.273 OA
ATOM     13  N   ALA A   6     -14.035  -3.785  23.316  0.00  0.00    -0.298 N 
ATOM     14  H   ALA A   6     -14.815  -4.063  22.687  0.00  0.00    +0.150 HD
BRANCH  13  15
ATOM     15  CA  ALA A   6     -14.336  -3.462  24.706  0.00  0.00    +0.137 C 
ATOM     16  CB  ALA A   6     -14.824  -2.024  24.829  0.00  0.00    +0.030 C 
BRANCH  15  17
ATOM     17  C   ALA A   6     -15.364  -4.445  25.272  0.00  0.00    +0.227 C 
ATOM     18  O   ALA A   6     -15.105  -5.090  26.287  0.00  0.00    -0.286 OA
ENDBRANCH  15  17
ENDBRANCH  13  15
ENDBRANCH  10  11
BRANCH  10  19
ATOM     19  CB  VAL A   5     -12.482  -5.787  21.409  0.00  0.00    +0.027 C 
ATOM     20  CG2 VAL A   5     -11.269  -6.226  22.226  0.00  0.00    +0.002 C 
ATOM     21  CG1 VAL A   5     -12.373  -6.317  19.996  0.00  0.00    +0.002 C 
ENDBRANCH  10  19
ENDBRANCH   7  10
ENDBRANCH   5   6
BRANCH   5  22
ATOM     22  CB  VAL A   4     -10.193  -1.024  18.892  0.00  0.00    +0.027 C 
ATOM     23  CG2 VAL A   4     -10.322  -0.474  20.303  0.00  0.00    +0.002 C 
ATOM     24  CG1 VAL A   4      -8.859  -0.620  18.281  0.00  0.00    +0.002 C 
ENDBRANCH   5  22
ENDBRANCH   3   5
BRANCH   1  25
ATOM     25  CA  CYS A   3      -9.734  -4.870  15.964  0.00  0.00    +0.160 C 
BRANCH  25  27
ATOM     26  C   GLU A   2      -8.105  -4.503  14.151  0.00  0.00    +0.241 C 
ATOM     27  N   CYS A   3      -8.395  -4.911  15.381  0.00  0.00    -0.296 N 
ATOM     28  H   CYS A   3      -7.620  -5.283  15.966  0.00  0.00    +0.150 HD
ATOM     29  O   GLU A   2      -8.913  -3.994  13.359  0.00  0.00    -0.273 OA
BRANCH  26  30
ATOM     30  CA  GLU A   2      -6.648  -4.660  13.768  0.00  0.00    +0.149 C 
BRANCH  30  33
ATOM     31  C   VAL A   1      -5.858  -6.431  12.312  0.00  0.00    +0.238 C 
ATOM     32  O   VAL A   1      -5.200  -6.943  13.212  0.00  0.00    -0.274 OA
ATOM     33  N   GLU A   2      -6.551  -5.306  12.477  0.00  0.00    -0.297 N 
ATOM     34  H   GLU A   2      -7.034  -4.882  11.659  0.00  0.00    +0.150 HD
BRANCH  31  35
ATOM     35  CA  VAL A   1      -5.898  -7.050  10.935  0.00  0.00    +0.145 C 
BRANCH  35  36
ATOM     36  CB  VAL A   1      -6.717  -8.354  10.962  0.00  0.00    +0.025 C 
ATOM     37  CG2 VAL A   1      -8.118  -8.126  11.493  0.00  0.00    +0.002 C 
ATOM     38  CG1 VAL A   1      -6.753  -8.968   9.576  0.00  0.00    +0.002 C 
ENDBRANCH  35  36
BRANCH  35  39
ATOM     39  N   VAL A   1      -4.519  -7.315  10.552  0.00  0.00    -0.238 NA
ATOM     40  H   VAL A   1      -3.988  -8.025  11.095  0.00  0.00    +0.142 HD
ENDBRANCH  35  39
ENDBRANCH  31  35
ENDBRANCH  30  33
BRANCH  30  41
ATOM     41  CB  GLU A   2      -5.988  -3.292  13.745  0.00  0.00    +0.041 C 
BRANCH  41  42
ATOM     42  CG  GLU A   2      -4.478  -3.378  13.717  0.00  0.00    +0.116 C 
BRANCH  42  43
ATOM     43  CD  GLU A   2      -3.800  -2.047  13.493  0.00  0.00    +0.365 C 
ATOM     44  OE2 GLU A   2      -2.894  -1.702  14.295  0.00  0.00    -0.246 OA
ATOM     45  OE1 GLU A   2      -4.141  -1.354  12.500  0.00  0.00    -0.246 OA
ENDBRANCH  42  43
ENDBRANCH  41  42
ENDBRANCH  30  41
ENDBRANCH  26  30
ENDBRANCH  25  27
BRANCH  25  46
ATOM     46  CB  CYS A   3     -10.311  -6.285  16.097  0.00  0.00    +0.098 C 
ATOM     47  SG  CYS A   3     -10.510  -7.173  14.552  0.00  0.00    -0.080 S 
ENDBRANCH  25  46
ENDBRANCH   1  25
TORSDOF 19
REMARK  Name = ../refined-set-2016/4ozj/4ozj_pocket.pdb
REMARK  199 active torsions:
REMARK  status: ('A' for Active; 'I' for Inactive)
REMARK    1  A    between atoms: _1  and  _3
REMARK    2  A    between atoms: _3  and  _4
REMARK    3  A    between atoms: _3  and  _6
REMARK    4  A    between atoms: _6  and  _7
REMARK    5  A    between atoms: _7  and  _8
REMARK    6  A    between atoms: _10  and  _12
REMARK    7  A    between atoms: _12  and  _13
REMARK    8  A    between atoms: _16  and  _18
REMARK    9  A    between atoms: _18  and  _19
REMARK   10  A    between atoms: _18  and  _21
REMARK   11  A    between atoms: _21  and  _22
REMARK   12  A    between atoms: _25  and  _27
REMARK   13  A    between atoms: _27  and  _28
REMARK   14  A    between atoms: _27  and  _30
REMARK   15  A    between atoms: _30  and  _31
REMARK   16  A    between atoms: _34  and  _36
REMARK   17  A    between atoms: _36  and  _37
REMARK   18  A    between atoms: _36  and  _39
REMARK   19  A    between atoms: _39  and  _40
REMARK   20  A    between atoms: _40  and  _41
REMARK   21  A    between atoms: _41  and  _42
REMARK   22  A    between atoms: _51  and  _53
REMARK   23  A    between atoms: _53  and  _54
REMARK   24  A    between atoms: _53  and  _56
REMARK   25  A    between atoms: _59  and  _61
REMARK   26  A    between atoms: _61  and  _62
REMARK   27  A    between atoms: _61  and  _64
REMARK   28  A    between atoms: _64  and  _65
REMARK   29  A    between atoms: _67  and  _69
REMARK   30  A    between atoms: _69  and  _70
REMARK   31  A    between atoms: _72  and  _74
REMARK   32  A    between atoms: _74  and  _75
REMARK   33  A    between atoms: _74  and  _77
REMARK   34  A    between atoms: _77  and  _78
REMARK   35  A    between atoms: _78  and  _79
REMARK   36  A    between atoms: _79  and  _80
REMARK   37  A    between atoms: _89  and  _91
REMARK   38  A    between atoms: _91  and  _92
REMARK   39  A    between atoms: _94  and  _96
REMARK   40  A    between atoms: _96  and  _97
REMARK   41  A    between atoms: _96  and  _99
REMARK   42  A    between atoms: _99  and  _100
REMARK   43  A    between atoms: _102  and  _104
REMARK   44  A    between atoms: _104  and  _105
REMARK   45  A    between atoms: _104  and  _107
REMARK   46  A    between atoms: _107  and  _108
REMARK   47  A    between atoms: _111  and  _113
REMARK   48  A    between atoms: _113  and  _114
REMARK   49  A    between atoms: _113  and  _116
REMARK   50  A    between atoms: _116  and  _117
REMARK   51  A    between atoms: _120  and  _122
REMARK   52  A    between atoms: _122  and  _123
REMARK   53  A    between atoms: _122  and  _125
REMARK   54  A    between atoms: _125  and  _126
REMARK   55  A    between atoms: _131  and  _133
REMARK   56  A    between atoms: _133  and  _134
REMARK   57  A    between atoms: _133  and  _136
REMARK   58  A    between atoms: _136  and  _137
REMARK   59  A    between atoms: _137  and  _138
REMARK   60  A    between atoms: _143  and  _145
REMARK   61  A    between atoms: _145  and  _146
REMARK   62  A    between atoms: _145  and  _148
REMARK   63  A    between atoms: _148  and  _149
REMARK   64  A    between atoms: _149  and  _150
REMARK   65  A    between atoms: _150  and  _151
REMARK   66  A    between atoms: _151  and  _152
REMARK   67  A    between atoms: _156  and  _158
REMARK   68  A    between atoms: _158  and  _159
REMARK   69  A    between atoms: _158  and  _161
REMARK   70  A    between atoms: _164  and  _166
REMARK   71  A    between atoms: _166  and  _167
REMARK   72  A    between atoms: _166  and  _169
REMARK   73  A    between atoms: _169  and  _170
REMARK   74  A    between atoms: _170  and  _171
REMARK   75  A    between atoms: _171  and  _172
REMARK   76  A    between atoms: _172  and  _173
REMARK   77  A    between atoms: _177  and  _179
REMARK   78  A    between atoms: _179  and  _180
REMARK   79  A    between atoms: _179  and  _182
REMARK   80  A    between atoms: _182  and  _183
REMARK   81  A    between atoms: _186  and  _188
REMARK   82  A    between atoms: _188  and  _189
REMARK   83  A    between atoms: _188  and  _191
REMARK   84  A    between atoms: _191  and  _192
REMARK   85  A    between atoms: _192  and  _193
REMARK   86  A    between atoms: _196  and  _198
REMARK   87  A    between atoms: _198  and  _199
REMARK   88  A    between atoms: _198  and  _201
REMARK   89  A    between atoms: _201  and  _202
REMARK   90  A    between atoms: _202  and  _203
REMARK   91  A    between atoms: _203  and  _204
REMARK   92  A    between atoms: _204  and  _205
REMARK   93  A    between atoms: _209  and  _211
REMARK   94  A    between atoms: _211  and  _212
REMARK   95  A    between atoms: _214  and  _216
REMARK   96  A    between atoms: _216  and  _217
REMARK   97  A    between atoms: _216  and  _219
REMARK   98  A    between atoms: _219  and  _220
REMARK   99  A    between atoms: _223  and  _225
REMARK  100  A    between atoms: _225  and  _226
REMARK  101  A    between atoms: _228  and  _230
REMARK  102  A    between atoms: _230  and  _231
REMARK  103  A    between atoms: _230  and  _233
REMARK  104  A    between atoms: _233  and  _234
REMARK  105  A    between atoms: _234  and  _235
REMARK  106  A    between atoms: _235  and  _236
REMARK  107  A    between atoms: _236  and  _237
REMARK  108  A    between atoms: _241  and  _243
REMARK  109  A    between atoms: _243  and  _244
REMARK  110  A    between atoms: _243  and  _246
REMARK  111  A    between atoms: _246  and  _247
REMARK  112  A    between atoms: _250  and  _252
REMARK  113  A    between atoms: _252  and  _253
REMARK  114  A    between atoms: _252  and  _255
REMARK  115  A    between atoms: _255  and  _256
REMARK  116  A    between atoms: _262  and  _264
REMARK  117  A    between atoms: _264  and  _265
REMARK  118  A    between atoms: _264  and  _267
REMARK  119  A    between atoms: _267  and  _268
REMARK  120  A    between atoms: _271  and  _273
REMARK  121  A    between atoms: _273  and  _274
REMARK  122  A    between atoms: _273  and  _276
REMARK  123  A    between atoms: _276  and  _277
REMARK  124  A    between atoms: _277  and  _278
REMARK  125  A    between atoms: _278  and  _279
REMARK  126  A    between atoms: _279  and  _280
REMARK  127  A    between atoms: _284  and  _286
REMARK  128  A    between atoms: _286  and  _287
REMARK  129  A    between atoms: _286  and  _289
REMARK  130  A    between atoms: _289  and  _290
REMARK  131  A    between atoms: _293  and  _295
REMARK  132  A    between atoms: _295  and  _296
REMARK  133  A    between atoms: _295  and  _298
REMARK  134  A    between atoms: _301  and  _303
REMARK  135  A    between atoms: _303  and  _304
REMARK  136  A    between atoms: _308  and  _309
REMARK  137  A    between atoms: _314  and  _316
REMARK  138  A    between atoms: _316  and  _317
REMARK  139  A    between atoms: _316  and  _319
REMARK  140  A    between atoms: _319  and  _320
REMARK  141  A    between atoms: _322  and  _324
REMARK  142  A    between atoms: _324  and  _325
REMARK  143  A    between atoms: _324  and  _327
REMARK  144  A    between atoms: _327  and  _328
REMARK  145  A    between atoms: _331  and  _333
REMARK  146  A    between atoms: _333  and  _334
REMARK  147  A    between atoms: _333  and  _336
REMARK  148  A    between atoms: _336  and  _337
REMARK  149  A    between atoms: _340  and  _342
REMARK  150  A    between atoms: _342  and  _343
REMARK  151  A    between atoms: _342  and  _345
REMARK  152  A    between atoms: _348  and  _350
REMARK  153  A    between atoms: _350  and  _351
REMARK  154  A    between atoms: _350  and  _353
REMARK  155  A    between atoms: _356  and  _358
REMARK  156  A    between atoms: _358  and  _359
REMARK  157  A    between atoms: _358  and  _361
REMARK  158  A    between atoms: _361  and  _362
REMARK  159  A    between atoms: _362  and  _363
REMARK  160  A    between atoms: _366  and  _368
REMARK  161  A    between atoms: _368  and  _369
REMARK  162  A    between atoms: _368  and  _371
REMARK  163  A    between atoms: _373  and  _375
REMARK  164  A    between atoms: _375  and  _376
REMARK  165  A    between atoms: _375  and  _378
REMARK  166  A    between atoms: _381  and  _383
REMARK  167  A    between atoms: _383  and  _384
REMARK  168  A    between atoms: _383  and  _386
REMARK  169  A    between atoms: _389  and  _391
REMARK  170  A    between atoms: _391  and  _392
REMARK  171  A    between atoms: _395  and  _397
REMARK  172  A    between atoms: _397  and  _398
REMARK  173  A    between atoms: _401  and  _403
REMARK  174  A    between atoms: _403  and  _404
REMARK  175  A    between atoms: _403  and  _406
REMARK  176  A    between atoms: _406  and  _407
REMARK  177  A    between atoms: _410  and  _412
REMARK  178  A    between atoms: _412  and  _413
REMARK  179  A    between atoms: _412  and  _415
REMARK  180  A    between atoms: _415  and  _416
REMARK  181  A    between atoms: _416  and  _417
REMARK  182  A    between atoms: _422  and  _424
REMARK  183  A    between atoms: _424  and  _425
REMARK  184  A    between atoms: _424  and  _427
REMARK  185  A    between atoms: _430  and  _432
REMARK  186  A    between atoms: _432  and  _433
REMARK  187  A    between atoms: _432  and  _435
REMARK  188  A    between atoms: _435  and  _436
REMARK  189  A    between atoms: _436  and  _437
REMARK  190  A    between atoms: _437  and  _438
REMARK  191  A    between atoms: _447  and  _449
REMARK  192  A    between atoms: _449  and  _450
REMARK  193  A    between atoms: _449  and  _452
REMARK  194  A    between atoms: _452  and  _453
REMARK  195  A    between atoms: _456  and  _458
REMARK  196  A    between atoms: _458  and  _459
REMARK  197  A    between atoms: _462  and  _464
REMARK  198  A    between atoms: _464  and  _465
REMARK  199  A    between atoms: _464  and  _467
REMARK                            x       y       z     vdW  Elec       q    Type
REMARK                         _______ _______ _______ _____ _____    ______ ____
ROOT
ATOM      1  CA  VAL A   4     -15.598  10.773  15.050  0.00  0.00    +0.149 C 
ENDROOT
BRANCH   1   2
ATOM      2  C   VAL A   4     -17.004  11.347  14.759  0.00  0.00    +0.241 C 
ATOM      3  O   VAL A   4     -17.224  12.540  14.880  0.00  0.00    -0.273 OA
ATOM      4  N   ARG A   5     -17.945  10.492  14.374  0.00  0.00    -0.297 N 
ATOM      5  H   ARG A   5     -17.740   9.472  14.378  0.00  0.00    +0.150 HD
BRANCH   4   6
ATOM      6  CA  ARG A   5     -19.282  10.962  13.939  0.00  0.00    +0.149 C 
BRANCH   6   7
ATOM      7  C   ARG A   5     -20.039  11.688  15.036  0.00  0.00    +0.241 C 
ATOM      8  N   THR A   6     -19.912  11.230  16.277  0.00  0.00    -0.296 N 
ATOM      9  H   THR A   6     -19.231  10.465  16.455  0.00  0.00    +0.150 HD
ATOM     10  O   ARG A   5     -20.702  12.673  14.740  0.00  0.00    -0.273 OA
BRANCH   8  11
ATOM     11  CA  THR A   6     -20.687  11.752  17.410  0.00  0.00    +0.164 C 
BRANCH  11  12
ATOM     12  CB  THR A   6     -21.349  10.592  18.159  0.00  0.00    +0.136 C 
ATOM     13  CG2 THR A   6     -22.280   9.860  17.241  0.00  0.00    +0.034 C 
BRANCH  12  14
ATOM     14  OG1 THR A   6     -20.310   9.683  18.579  0.00  0.00    -0.382 OA
ATOM     15  HG1 THR A   6     -20.715   8.923  19.067  0.00  0.00    +0.210 HD
ENDBRANCH  12  14
ENDBRANCH  11  12
BRANCH  11  16
ATOM     16  C   THR A   6     -19.850  12.499  18.441  0.00  0.00    +0.229 C 
ATOM     17  O   THR A   6     -20.393  13.284  19.228  0.00  0.00    -0.286 OA
ENDBRANCH  11  16
ENDBRANCH   8  11
ENDBRANCH   6   7
BRANCH   6  18
ATOM     18  CB  ARG A   5     -20.103   9.792  13.414  0.00  0.00    +0.033 C 
BRANCH  18  19
ATOM     19  CG  ARG A   5     -21.408  10.178  12.719  0.00  0.00    +0.045 C 
BRANCH  19  20
ATOM     20  CD  ARG A   5     -22.033   8.972  12.043  0.00  0.00    +0.174 C 
BRANCH  20  21
ATOM     21  NE  ARG A   5     -22.740   8.125  13.001  0.00  0.00    -0.265 N 
ATOM     22  HE  ARG A   5     -22.177   7.455  13.563  0.00  0.00    +0.259 HD
ATOM     23  CZ  ARG A   5     -24.063   8.152  13.205  0.00  0.00    +0.342 C 
ATOM     24  NH2 ARG A   5     -24.600   7.351  14.109  0.00  0.00    -0.292 N 
ATOM     25 HH21 ARG A   5     -23.996   6.705  14.656  0.00  0.00    +0.255 HD
ATOM     26 HH22 ARG A   5     -25.627   7.366  14.273  0.00  0.00    +0.255 HD
ATOM     27  NH1 ARG A   5     -24.849   8.966  12.503  0.00  0.00    -0.292 N 
ATOM     28 HH11 ARG A   5     -25.875   8.974  12.674  0.00  0.00    +0.255 HD
ATOM     29 HH12 ARG A   5     -24.437   9.594  11.783  0.00  0.00    +0.255 HD
ENDBRANCH  20  21
ENDBRANCH  19  20
ENDBRANCH  18  19
ENDBRANCH   6  18
ENDBRANCH   4   6
ENDBRANCH   1   2
BRANCH   1  32
ATOM     30  C   GLN A   3     -16.166   9.482  17.028  0.00  0.00    +0.241 C 
ATOM     31  O   GLN A   3     -16.624  10.478  17.590  0.00  0.00    -0.273 OA
ATOM     32  N   VAL A   4     -15.682   9.518  15.797  0.00  0.00    -0.297 N 
ATOM     33  H   VAL A   4     -15.355   8.637  15.352  0.00  0.00    +0.150 HD
BRANCH  30  34
ATOM     34  CA  GLN A   3     -16.196   8.137  17.731  0.00  0.00    +0.149 C 
BRANCH  34  36
ATOM     35  C   ILE A   2     -14.157   8.187  19.042  0.00  0.00    +0.241 C 
ATOM     36  N   GLN A   3     -15.484   8.254  18.997  0.00  0.00    -0.297 N 
ATOM     37  H   GLN A   3     -16.021   8.392  19.877  0.00  0.00    +0.150 HD
ATOM     38  O   ILE A   2     -13.484   7.849  18.080  0.00  0.00    -0.273 OA
BRANCH  35  39
ATOM     39  CA  ILE A   2     -13.508   8.567  20.366  0.00  0.00    +0.148 C 
BRANCH  39  42
ATOM     40  C   ALA A   1     -12.516   7.022  21.977  0.00  0.00    +0.238 C 
ATOM     41  O   ALA A   1     -13.255   7.392  22.905  0.00  0.00    -0.274 OA
ATOM     42  N   ILE A   2     -12.547   7.549  20.760  0.00  0.00    -0.297 N 
ATOM     43  H   ILE A   2     -11.854   7.220  20.057  0.00  0.00    +0.150 HD
BRANCH  40  44
ATOM     44  CA  ALA A   1     -11.533   5.877  22.176  0.00  0.00    +0.145 C 
ATOM     45  CB  ALA A   1     -12.226   4.547  21.922  0.00  0.00    +0.028 C 
BRANCH  44  46
ATOM     46  N   ALA A   1     -10.993   5.929  23.518  0.00  0.00    -0.238 NA
ATOM     47  H   ALA A   1     -11.627   6.202  24.296  0.00  0.00    +0.142 HD
ENDBRANCH  44  46
ENDBRANCH  40  44
ENDBRANCH  39  42
BRANCH  39  48
ATOM     48  CB  ILE A   2     -12.831   9.948  20.207  0.00  0.00    +0.027 C 
ATOM     49  CG2 ILE A   2     -13.863  10.998  19.800  0.00  0.00    +0.002 C 
BRANCH  48  50
ATOM     50  CG1 ILE A   2     -12.109  10.335  21.499  0.00  0.00    +0.002 C 
ATOM     51  CD1 ILE A   2     -11.367  11.654  21.424  0.00  0.00    +0.000 C 
ENDBRANCH  48  50
ENDBRANCH  39  48
ENDBRANCH  35  39
ENDBRANCH  34  36
BRANCH  34  52
ATOM     52  CB  GLN A   3     -17.653   7.751  17.953  0.00  0.00    +0.039 C 
BRANCH  52  53
ATOM     53  CG  GLN A   3     -17.919   6.272  18.037  0.00  0.00    +0.087 C 
BRANCH  53  54
ATOM     54  CD  GLN A   3     -19.358   5.945  18.369  0.00  0.00    +0.219 C 
ATOM     55  OE1 GLN A   3     -19.661   4.828  18.789  0.00  0.00    -0.275 OA
ATOM     56  NE2 GLN A   3     -20.252   6.909  18.186  0.00  0.00    -0.329 N 
ATOM     57 HE21 GLN A   3     -21.255   6.736  18.400  0.00  0.00    +0.145 HD
ATOM     58 HE22 GLN A   3     -19.950   7.838  17.829  0.00  0.00    +0.145 HD
ENDBRANCH  53  54
ENDBRANCH  52  53
ENDBRANCH  34  52
ENDBRANCH  30  34
ENDBRANCH   1  32
BRANCH   1  59
ATOM     59  CB  VAL A   4     -14.826  10.586  13.725  0.00  0.00    +0.027 C 
ATOM     60  CG2 VAL A   4     -13.364  10.199  13.990  0.00  0.00    +0.002 C 
ATOM     61  CG1 VAL A   4     -14.898  11.848  12.867  0.00  0.00    +0.002 C 
ENDBRANCH   1  59
TORSDOF 24
REMARK  Name = ../refined-set-2016/4ozj/4ozj_pocket.pdb
REMARK  199 active torsions:
REMARK  status: ('A' for Active; 'I' for Inactive)
REMARK    1  A    between atoms: _1  and  _3
REMARK    2  A    between atoms: _3  and  _4
REMARK    3  A    between atoms: _3  and  _6
REMARK    4  A    between atoms: _6  and  _7
REMARK    5  A    between atoms: _7  and  _8
REMARK    6  A    between atoms: _10  and  _12
REMARK    7  A    between atoms: _12  and  _13
REMARK    8  A    between atoms: _16  and  _18
REMARK    9  A    between atoms: _18  and  _19
REMARK   10  A    between atoms: _18  and  _21
REMARK   11  A    between atoms: _21  and  _22
REMARK   12  A    between atoms: _25  and  _27
REMARK   13  A    between atoms: _27  and  _28
REMARK   14  A    between atoms: _27  and  _30
REMARK   15  A    between atoms: _30  and  _31
REMARK   16  A    between atoms: _34  and  _36
REMARK   17  A    between atoms: _36  and  _37
REMARK   18  A    between atoms: _36  and  _39
REMARK   19  A    between atoms: _39  and  _40
REMARK   20  A    between atoms: _40  and  _41
REMARK   21  A    between atoms: _41  and  _42
REMARK   22  A    between atoms: _51  and  _53
REMARK   23  A    between atoms: _53  and  _54
REMARK   24  A    between atoms: _53  and  _56
REMARK   25  A    between atoms: _59  and  _61
REMARK   26  A    between atoms: _61  and  _62
REMARK   27  A    between atoms: _61  and  _64
REMARK   28  A    between atoms: _64  and  _65
REMARK   29  A    between atoms: _67  and  _69
REMARK   30  A    between atoms: _69  and  _70
REMARK   31  A    between atoms: _72  and  _74
REMARK   32  A    between atoms: _74  and  _75
REMARK   33  A    between atoms: _74  and  _77
REMARK   34  A    between atoms: _77  and  _78
REMARK   35  A    between atoms: _78  and  _79
REMARK   36  A    between atoms: _79  and  _80
REMARK   37  A    between atoms: _89  and  _91
REMARK   38  A    between atoms: _91  and  _92
REMARK   39  A    between atoms: _94  and  _96
REMARK   40  A    between atoms: _96  and  _97
REMARK   41  A    between atoms: _96  and  _99
REMARK   42  A    between atoms: _99  and  _100
REMARK   43  A    between atoms: _102  and  _104
REMARK   44  A    between atoms: _104  and  _105
REMARK   45  A    between atoms: _104  and  _107
REMARK   46  A    between atoms: _107  and  _108
REMARK   47  A    between atoms: _111  and  _113
REMARK   48  A    between atoms: _113  and  _114
REMARK   49  A    between atoms: _113  and  _116
REMARK   50  A    between atoms: _116  and  _117
REMARK   51  A    between atoms: _120  and  _122
REMARK   52  A    between atoms: _122  and  _123
REMARK   53  A    between atoms: _122  and  _125
REMARK   54  A    between atoms: _125  and  _126
REMARK   55  A    between atoms: _131  and  _133
REMARK   56  A    between atoms: _133  and  _134
REMARK   57  A    between atoms: _133  and  _136
REMARK   58  A    between atoms: _136  and  _137
REMARK   59  A    between atoms: _137  and  _138
REMARK   60  A    between atoms: _143  and  _145
REMARK   61  A    between atoms: _145  and  _146
REMARK   62  A    between atoms: _145  and  _148
REMARK   63  A    between atoms: _148  and  _149
REMARK   64  A    between atoms: _149  and  _150
REMARK   65  A    between atoms: _150  and  _151
REMARK   66  A    between atoms: _151  and  _152
REMARK   67  A    between atoms: _156  and  _158
REMARK   68  A    between atoms: _158  and  _159
REMARK   69  A    between atoms: _158  and  _161
REMARK   70  A    between atoms: _164  and  _166
REMARK   71  A    between atoms: _166  and  _167
REMARK   72  A    between atoms: _166  and  _169
REMARK   73  A    between atoms: _169  and  _170
REMARK   74  A    between atoms: _170  and  _171
REMARK   75  A    between atoms: _171  and  _172
REMARK   76  A    between atoms: _172  and  _173
REMARK   77  A    between atoms: _177  and  _179
REMARK   78  A    between atoms: _179  and  _180
REMARK   79  A    between atoms: _179  and  _182
REMARK   80  A    between atoms: _182  and  _183
REMARK   81  A    between atoms: _186  and  _188
REMARK   82  A    between atoms: _188  and  _189
REMARK   83  A    between atoms: _188  and  _191
REMARK   84  A    between atoms: _191  and  _192
REMARK   85  A    between atoms: _192  and  _193
REMARK   86  A    between atoms: _196  and  _198
REMARK   87  A    between atoms: _198  and  _199
REMARK   88  A    between atoms: _198  and  _201
REMARK   89  A    between atoms: _201  and  _202
REMARK   90  A    between atoms: _202  and  _203
REMARK   91  A    between atoms: _203  and  _204
REMARK   92  A    between atoms: _204  and  _205
REMARK   93  A    between atoms: _209  and  _211
REMARK   94  A    between atoms: _211  and  _212
REMARK   95  A    between atoms: _214  and  _216
REMARK   96  A    between atoms: _216  and  _217
REMARK   97  A    between atoms: _216  and  _219
REMARK   98  A    between atoms: _219  and  _220
REMARK   99  A    between atoms: _223  and  _225
REMARK  100  A    between atoms: _225  and  _226
REMARK  101  A    between atoms: _228  and  _230
REMARK  102  A    between atoms: _230  and  _231
REMARK  103  A    between atoms: _230  and  _233
REMARK  104  A    between atoms: _233  and  _234
REMARK  105  A    between atoms: _234  and  _235
REMARK  106  A    between atoms: _235  and  _236
REMARK  107  A    between atoms: _236  and  _237
REMARK  108  A    between atoms: _241  and  _243
REMARK  109  A    between atoms: _243  and  _244
REMARK  110  A    between atoms: _243  and  _246
REMARK  111  A    between atoms: _246  and  _247
REMARK  112  A    between atoms: _250  and  _252
REMARK  113  A    between atoms: _252  and  _253
REMARK  114  A    between atoms: _252  and  _255
REMARK  115  A    between atoms: _255  and  _256
REMARK  116  A    between atoms: _262  and  _264
REMARK  117  A    between atoms: _264  and  _265
REMARK  118  A    between atoms: _264  and  _267
REMARK  119  A    between atoms: _267  and  _268
REMARK  120  A    between atoms: _271  and  _273
REMARK  121  A    between atoms: _273  and  _274
REMARK  122  A    between atoms: _273  and  _276
REMARK  123  A    between atoms: _276  and  _277
REMARK  124  A    between atoms: _277  and  _278
REMARK  125  A    between atoms: _278  and  _279
REMARK  126  A    between atoms: _279  and  _280
REMARK  127  A    between atoms: _284  and  _286
REMARK  128  A    between atoms: _286  and  _287
REMARK  129  A    between atoms: _286  and  _289
REMARK  130  A    between atoms: _289  and  _290
REMARK  131  A    between atoms: _293  and  _295
REMARK  132  A    between atoms: _295  and  _296
REMARK  133  A    between atoms: _295  and  _298
REMARK  134  A    between atoms: _301  and  _303
REMARK  135  A    between atoms: _303  and  _304
REMARK  136  A    between atoms: _308  and  _309
REMARK  137  A    between atoms: _314  and  _316
REMARK  138  A    between atoms: _316  and  _317
REMARK  139  A    between atoms: _316  and  _319
REMARK  140  A    between atoms: _319  and  _320
REMARK  141  A    between atoms: _322  and  _324
REMARK  142  A    between atoms: _324  and  _325
REMARK  143  A    between atoms: _324  and  _327
REMARK  144  A    between atoms: _327  and  _328
REMARK  145  A    between atoms: _331  and  _333
REMARK  146  A    between atoms: _333  and  _334
REMARK  147  A    between atoms: _333  and  _336
REMARK  148  A    between atoms: _336  and  _337
REMARK  149  A    between atoms: _340  and  _342
REMARK  150  A    between atoms: _342  and  _343
REMARK  151  A    between atoms: _342  and  _345
REMARK  152  A    between atoms: _348  and  _350
REMARK  153  A    between atoms: _350  and  _351
REMARK  154  A    between atoms: _350  and  _353
REMARK  155  A    between atoms: _356  and  _358
REMARK  156  A    between atoms: _358  and  _359
REMARK  157  A    between atoms: _358  and  _361
REMARK  158  A    between atoms: _361  and  _362
REMARK  159  A    between atoms: _362  and  _363
REMARK  160  A    between atoms: _366  and  _368
REMARK  161  A    between atoms: _368  and  _369
REMARK  162  A    between atoms: _368  and  _371
REMARK  163  A    between atoms: _373  and  _375
REMARK  164  A    between atoms: _375  and  _376
REMARK  165  A    between atoms: _375  and  _378
REMARK  166  A    between atoms: _381  and  _383
REMARK  167  A    between atoms: _383  and  _384
REMARK  168  A    between atoms: _383  and  _386
REMARK  169  A    between atoms: _389  and  _391
REMARK  170  A    between atoms: _391  and  _392
REMARK  171  A    between atoms: _395  and  _397
REMARK  172  A    between atoms: _397  and  _398
REMARK  173  A    between atoms: _401  and  _403
REMARK  174  A    between atoms: _403  and  _404
REMARK  175  A    between atoms: _403  and  _406
REMARK  176  A    between atoms: _406  and  _407
REMARK  177  A    between atoms: _410  and  _412
REMARK  178  A    between atoms: _412  and  _413
REMARK  179  A    between atoms: _412  and  _415
REMARK  180  A    between atoms: _415  and  _416
REMARK  181  A    between atoms: _416  and  _417
REMARK  182  A    between atoms: _422  and  _424
REMARK  183  A    between atoms: _424  and  _425
REMARK  184  A    between atoms: _424  and  _427
REMARK  185  A    between atoms: _430  and  _432
REMARK  186  A    between atoms: _432  and  _433
REMARK  187  A    between atoms: _432  and  _435
REMARK  188  A    between atoms: _435  and  _436
REMARK  189  A    between atoms: _436  and  _437
REMARK  190  A    between atoms: _437  and  _438
REMARK  191  A    between atoms: _447  and  _449
REMARK  192  A    between atoms: _449  and  _450
REMARK  193  A    between atoms: _449  and  _452
REMARK  194  A    between atoms: _452  and  _453
REMARK  195  A    between atoms: _456  and  _458
REMARK  196  A    between atoms: _458  and  _459
REMARK  197  A    between atoms: _462  and  _464
REMARK  198  A    between atoms: _464  and  _465
REMARK  199  A    between atoms: _464  and  _467
REMARK                            x       y       z     vdW  Elec       q    Type
REMARK                         _______ _______ _______ _____ _____    ______ ____
ROOT
ATOM      1  C   ALA A   1     -16.868   3.409  20.941  0.00  0.00    +0.238 C 
ATOM      2  N   VAL A   2     -16.468   2.325  21.619  0.00  0.00    -0.296 N 
ATOM      3  H   VAL A   2     -16.307   2.444  22.640  0.00  0.00    +0.150 HD
ATOM      4  O   ALA A   1     -16.792   3.528  19.718  0.00  0.00    -0.274 OA
ENDROOT
BRANCH   1   5
ATOM      5  CA  ALA A   1     -17.406   4.570  21.791  0.00  0.00    +0.145 C 
ATOM      6  CB  ALA A   1     -16.404   5.715  21.833  0.00  0.00    +0.028 C 
BRANCH   5   7
ATOM      7  N   ALA A   1     -17.745   4.124  23.144  0.00  0.00    -0.238 NA
ATOM      8  H   ALA A   1     -17.124   4.382  23.937  0.00  0.00    +0.142 HD
ENDBRANCH   5   7
ENDBRANCH   1   5
BRANCH   2   9
ATOM      9  CA  VAL A   2     -16.232   0.971  21.058  0.00  0.00    +0.176 C 
BRANCH   9  10
ATOM     10  C   VAL A   2     -14.770   0.527  21.267  0.00  0.00    +0.382 C 
ATOM     11  OXT VAL A   2     -13.959   1.270  21.833  0.00  0.00    -0.244 OA
ATOM     12  O   VAL A   2     -14.355  -0.589  20.929  0.00  0.00    -0.244 OA
ENDBRANCH   9  10
BRANCH   9  13
ATOM     13  CB  VAL A   2     -16.794   0.767  19.607  0.00  0.00    +0.029 C 
ATOM     14  CG2 VAL A   2     -17.895  -0.280  19.604  0.00  0.00    +0.002 C 
ATOM     15  CG1 VAL A   2     -15.730   0.360  18.598  0.00  0.00    +0.002 C 
ENDBRANCH   9  13
ENDBRANCH   2   9
TORSDOF 5
REMARK  Name = ../refined-set-2016/4ozj/4ozj_pocket.pdb
REMARK  199 active torsions:
REMARK  status: ('A' for Active; 'I' for Inactive)
REMARK    1  A    between atoms: _1  and  _3
REMARK    2  A    between atoms: _3  and  _4
REMARK    3  A    between atoms: _3  and  _6
REMARK    4  A    between atoms: _6  and  _7
REMARK    5  A    between atoms: _7  and  _8
REMARK    6  A    between atoms: _10  and  _12
REMARK    7  A    between atoms: _12  and  _13
REMARK    8  A    between atoms: _16  and  _18
REMARK    9  A    between atoms: _18  and  _19
REMARK   10  A    between atoms: _18  and  _21
REMARK   11  A    between atoms: _21  and  _22
REMARK   12  A    between atoms: _25  and  _27
REMARK   13  A    between atoms: _27  and  _28
REMARK   14  A    between atoms: _27  and  _30
REMARK   15  A    between atoms: _30  and  _31
REMARK   16  A    between atoms: _34  and  _36
REMARK   17  A    between atoms: _36  and  _37
REMARK   18  A    between atoms: _36  and  _39
REMARK   19  A    between atoms: _39  and  _40
REMARK   20  A    between atoms: _40  and  _41
REMARK   21  A    between atoms: _41  and  _42
REMARK   22  A    between atoms: _51  and  _53
REMARK   23  A    between atoms: _53  and  _54
REMARK   24  A    between atoms: _53  and  _56
REMARK   25  A    between atoms: _59  and  _61
REMARK   26  A    between atoms: _61  and  _62
REMARK   27  A    between atoms: _61  and  _64
REMARK   28  A    between atoms: _64  and  _65
REMARK   29  A    between atoms: _67  and  _69
REMARK   30  A    between atoms: _69  and  _70
REMARK   31  A    between atoms: _72  and  _74
REMARK   32  A    between atoms: _74  and  _75
REMARK   33  A    between atoms: _74  and  _77
REMARK   34  A    between atoms: _77  and  _78
REMARK   35  A    between atoms: _78  and  _79
REMARK   36  A    between atoms: _79  and  _80
REMARK   37  A    between atoms: _89  and  _91
REMARK   38  A    between atoms: _91  and  _92
REMARK   39  A    between atoms: _94  and  _96
REMARK   40  A    between atoms: _96  and  _97
REMARK   41  A    between atoms: _96  and  _99
REMARK   42  A    between atoms: _99  and  _100
REMARK   43  A    between atoms: _102  and  _104
REMARK   44  A    between atoms: _104  and  _105
REMARK   45  A    between atoms: _104  and  _107
REMARK   46  A    between atoms: _107  and  _108
REMARK   47  A    between atoms: _111  and  _113
REMARK   48  A    between atoms: _113  and  _114
REMARK   49  A    between atoms: _113  and  _116
REMARK   50  A    between atoms: _116  and  _117
REMARK   51  A    between atoms: _120  and  _122
REMARK   52  A    between atoms: _122  and  _123
REMARK   53  A    between atoms: _122  and  _125
REMARK   54  A    between atoms: _125  and  _126
REMARK   55  A    between atoms: _131  and  _133
REMARK   56  A    between atoms: _133  and  _134
REMARK   57  A    between atoms: _133  and  _136
REMARK   58  A    between atoms: _136  and  _137
REMARK   59  A    between atoms: _137  and  _138
REMARK   60  A    between atoms: _143  and  _145
REMARK   61  A    between atoms: _145  and  _146
REMARK   62  A    between atoms: _145  and  _148
REMARK   63  A    between atoms: _148  and  _149
REMARK   64  A    between atoms: _149  and  _150
REMARK   65  A    between atoms: _150  and  _151
REMARK   66  A    between atoms: _151  and  _152
REMARK   67  A    between atoms: _156  and  _158
REMARK   68  A    between atoms: _158  and  _159
REMARK   69  A    between atoms: _158  and  _161
REMARK   70  A    between atoms: _164  and  _166
REMARK   71  A    between atoms: _166  and  _167
REMARK   72  A    between atoms: _166  and  _169
REMARK   73  A    between atoms: _169  and  _170
REMARK   74  A    between atoms: _170  and  _171
REMARK   75  A    between atoms: _171  and  _172
REMARK   76  A    between atoms: _172  and  _173
REMARK   77  A    between atoms: _177  and  _179
REMARK   78  A    between atoms: _179  and  _180
REMARK   79  A    between atoms: _179  and  _182
REMARK   80  A    between atoms: _182  and  _183
REMARK   81  A    between atoms: _186  and  _188
REMARK   82  A    between atoms: _188  and  _189
REMARK   83  A    between atoms: _188  and  _191
REMARK   84  A    between atoms: _191  and  _192
REMARK   85  A    between atoms: _192  and  _193
REMARK   86  A    between atoms: _196  and  _198
REMARK   87  A    between atoms: _198  and  _199
REMARK   88  A    between atoms: _198  and  _201
REMARK   89  A    between atoms: _201  and  _202
REMARK   90  A    between atoms: _202  and  _203
REMARK   91  A    between atoms: _203  and  _204
REMARK   92  A    between atoms: _204  and  _205
REMARK   93  A    between atoms: _209  and  _211
REMARK   94  A    between atoms: _211  and  _212
REMARK   95  A    between atoms: _214  and  _216
REMARK   96  A    between atoms: _216  and  _217
REMARK   97  A    between atoms: _216  and  _219
REMARK   98  A    between atoms: _219  and  _220
REMARK   99  A    between atoms: _223  and  _225
REMARK  100  A    between atoms: _225  and  _226
REMARK  101  A    between atoms: _228  and  _230
REMARK  102  A    between atoms: _230  and  _231
REMARK  103  A    between atoms: _230  and  _233
REMARK  104  A    between atoms: _233  and  _234
REMARK  105  A    between atoms: _234  and  _235
REMARK  106  A    between atoms: _235  and  _236
REMARK  107  A    between atoms: _236  and  _237
REMARK  108  A    between atoms: _241  and  _243
REMARK  109  A    between atoms: _243  and  _244
REMARK  110  A    between atoms: _243  and  _246
REMARK  111  A    between atoms: _246  and  _247
REMARK  112  A    between atoms: _250  and  _252
REMARK  113  A    between atoms: _252  and  _253
REMARK  114  A    between atoms: _252  and  _255
REMARK  115  A    between atoms: _255  and  _256
REMARK  116  A    between atoms: _262  and  _264
REMARK  117  A    between atoms: _264  and  _265
REMARK  118  A    between atoms: _264  and  _267
REMARK  119  A    between atoms: _267  and  _268
REMARK  120  A    between atoms: _271  and  _273
REMARK  121  A    between atoms: _273  and  _274
REMARK  122  A    between atoms: _273  and  _276
REMARK  123  A    between atoms: _276  and  _277
REMARK  124  A    between atoms: _277  and  _278
REMARK  125  A    between atoms: _278  and  _279
REMARK  126  A    between atoms: _279  and  _280
REMARK  127  A    between atoms: _284  and  _286
REMARK  128  A    between atoms: _286  and  _287
REMARK  129  A    between atoms: _286  and  _289
REMARK  130  A    between atoms: _289  and  _290
REMARK  131  A    between atoms: _293  and  _295
REMARK  132  A    between atoms: _295  and  _296
REMARK  133  A    between atoms: _295  and  _298
REMARK  134  A    between atoms: _301  and  _303
REMARK  135  A    between atoms: _303  and  _304
REMARK  136  A    between atoms: _308  and  _309
REMARK  137  A    between atoms: _314  and  _316
REMARK  138  A    between atoms: _316  and  _317
REMARK  139  A    between atoms: _316  and  _319
REMARK  140  A    between atoms: _319  and  _320
REMARK  141  A    between atoms: _322  and  _324
REMARK  142  A    between atoms: _324  and  _325
REMARK  143  A    between atoms: _324  and  _327
REMARK  144  A    between atoms: _327  and  _328
REMARK  145  A    between atoms: _331  and  _333
REMARK  146  A    between atoms: _333  and  _334
REMARK  147  A    between atoms: _333  and  _336
REMARK  148  A    between atoms: _336  and  _337
REMARK  149  A    between atoms: _340  and  _342
REMARK  150  A    between atoms: _342  and  _343
REMARK  151  A    between atoms: _342  and  _345
REMARK  152  A    between atoms: _348  and  _350
REMARK  153  A    between atoms: _350  and  _351
REMARK  154  A    between atoms: _350  and  _353
REMARK  155  A    between atoms: _356  and  _358
REMARK  156  A    between atoms: _358  and  _359
REMARK  157  A    between atoms: _358  and  _361
REMARK  158  A    between atoms: _361  and  _362
REMARK  159  A    between atoms: _362  and  _363
REMARK  160  A    between atoms: _366  and  _368
REMARK  161  A    between atoms: _368  and  _369
REMARK  162  A    between atoms: _368  and  _371
REMARK  163  A    between atoms: _373  and  _375
REMARK  164  A    between atoms: _375  and  _376
REMARK  165  A    between atoms: _375  and  _378
REMARK  166  A    between atoms: _381  and  _383
REMARK  167  A    between atoms: _383  and  _384
REMARK  168  A    between atoms: _383  and  _386
REMARK  169  A    between atoms: _389  and  _391
REMARK  170  A    between atoms: _391  and  _392
REMARK  171  A    between atoms: _395  and  _397
REMARK  172  A    between atoms: _397  and  _398
REMARK  173  A    between atoms: _401  and  _403
REMARK  174  A    between atoms: _403  and  _404
REMARK  175  A    between atoms: _403  and  _406
REMARK  176  A    between atoms: _406  and  _407
REMARK  177  A    between atoms: _410  and  _412
REMARK  178  A    between atoms: _412  and  _413
REMARK  179  A    between atoms: _412  and  _415
REMARK  180  A    between atoms: _415  and  _416
REMARK  181  A    between atoms: _416  and  _417
REMARK  182  A    between atoms: _422  and  _424
REMARK  183  A    between atoms: _424  and  _425
REMARK  184  A    between atoms: _424  and  _427
REMARK  185  A    between atoms: _430  and  _432
REMARK  186  A    between atoms: _432  and  _433
REMARK  187  A    between atoms: _432  and  _435
REMARK  188  A    between atoms: _435  and  _436
REMARK  189  A    between atoms: _436  and  _437
REMARK  190  A    between atoms: _437  and  _438
REMARK  191  A    between atoms: _447  and  _449
REMARK  192  A    between atoms: _449  and  _450
REMARK  193  A    between atoms: _449  and  _452
REMARK  194  A    between atoms: _452  and  _453
REMARK  195  A    between atoms: _456  and  _458
REMARK  196  A    between atoms: _458  and  _459
REMARK  197  A    between atoms: _462  and  _464
REMARK  198  A    between atoms: _464  and  _465
REMARK  199  A    between atoms: _464  and  _467
REMARK                            x       y       z     vdW  Elec       q    Type
REMARK                         _______ _______ _______ _____ _____    ______ ____
ROOT
ATOM      1  O   HOH     1     -19.299   6.569  11.989  0.00  0.00    +0.000 OA
ENDROOT
TORSDOF 0
REMARK  Name = ../refined-set-2016/4ozj/4ozj_pocket.pdb
REMARK  199 active torsions:
REMARK  status: ('A' for Active; 'I' for Inactive)
REMARK    1  A    between atoms: _1  and  _3
REMARK    2  A    between atoms: _3  and  _4
REMARK    3  A    between atoms: _3  and  _6
REMARK    4  A    between atoms: _6  and  _7
REMARK    5  A    between atoms: _7  and  _8
REMARK    6  A    between atoms: _10  and  _12
REMARK    7  A    between atoms: _12  and  _13
REMARK    8  A    between atoms: _16  and  _18
REMARK    9  A    between atoms: _18  and  _19
REMARK   10  A    between atoms: _18  and  _21
REMARK   11  A    between atoms: _21  and  _22
REMARK   12  A    between atoms: _25  and  _27
REMARK   13  A    between atoms: _27  and  _28
REMARK   14  A    between atoms: _27  and  _30
REMARK   15  A    between atoms: _30  and  _31
REMARK   16  A    between atoms: _34  and  _36
REMARK   17  A    between atoms: _36  and  _37
REMARK   18  A    between atoms: _36  and  _39
REMARK   19  A    between atoms: _39  and  _40
REMARK   20  A    between atoms: _40  and  _41
REMARK   21  A    between atoms: _41  and  _42
REMARK   22  A    between atoms: _51  and  _53
REMARK   23  A    between atoms: _53  and  _54
REMARK   24  A    between atoms: _53  and  _56
REMARK   25  A    between atoms: _59  and  _61
REMARK   26  A    between atoms: _61  and  _62
REMARK   27  A    between atoms: _61  and  _64
REMARK   28  A    between atoms: _64  and  _65
REMARK   29  A    between atoms: _67  and  _69
REMARK   30  A    between atoms: _69  and  _70
REMARK   31  A    between atoms: _72  and  _74
REMARK   32  A    between atoms: _74  and  _75
REMARK   33  A    between atoms: _74  and  _77
REMARK   34  A    between atoms: _77  and  _78
REMARK   35  A    between atoms: _78  and  _79
REMARK   36  A    between atoms: _79  and  _80
REMARK   37  A    between atoms: _89  and  _91
REMARK   38  A    between atoms: _91  and  _92
REMARK   39  A    between atoms: _94  and  _96
REMARK   40  A    between atoms: _96  and  _97
REMARK   41  A    between atoms: _96  and  _99
REMARK   42  A    between atoms: _99  and  _100
REMARK   43  A    between atoms: _102  and  _104
REMARK   44  A    between atoms: _104  and  _105
REMARK   45  A    between atoms: _104  and  _107
REMARK   46  A    between atoms: _107  and  _108
REMARK   47  A    between atoms: _111  and  _113
REMARK   48  A    between atoms: _113  and  _114
REMARK   49  A    between atoms: _113  and  _116
REMARK   50  A    between atoms: _116  and  _117
REMARK   51  A    between atoms: _120  and  _122
REMARK   52  A    between atoms: _122  and  _123
REMARK   53  A    between atoms: _122  and  _125
REMARK   54  A    between atoms: _125  and  _126
REMARK   55  A    between atoms: _131  and  _133
REMARK   56  A    between atoms: _133  and  _134
REMARK   57  A    between atoms: _133  and  _136
REMARK   58  A    between atoms: _136  and  _137
REMARK   59  A    between atoms: _137  and  _138
REMARK   60  A    between atoms: _143  and  _145
REMARK   61  A    between atoms: _145  and  _146
REMARK   62  A    between atoms: _145  and  _148
REMARK   63  A    between atoms: _148  and  _149
REMARK   64  A    between atoms: _149  and  _150
REMARK   65  A    between atoms: _150  and  _151
REMARK   66  A    between atoms: _151  and  _152
REMARK   67  A    between atoms: _156  and  _158
REMARK   68  A    between atoms: _158  and  _159
REMARK   69  A    between atoms: _158  and  _161
REMARK   70  A    between atoms: _164  and  _166
REMARK   71  A    between atoms: _166  and  _167
REMARK   72  A    between atoms: _166  and  _169
REMARK   73  A    between atoms: _169  and  _170
REMARK   74  A    between atoms: _170  and  _171
REMARK   75  A    between atoms: _171  and  _172
REMARK   76  A    between atoms: _172  and  _173
REMARK   77  A    between atoms: _177  and  _179
REMARK   78  A    between atoms: _179  and  _180
REMARK   79  A    between atoms: _179  and  _182
REMARK   80  A    between atoms: _182  and  _183
REMARK   81  A    between atoms: _186  and  _188
REMARK   82  A    between atoms: _188  and  _189
REMARK   83  A    between atoms: _188  and  _191
REMARK   84  A    between atoms: _191  and  _192
REMARK   85  A    between atoms: _192  and  _193
REMARK   86  A    between atoms: _196  and  _198
REMARK   87  A    between atoms: _198  and  _199
REMARK   88  A    between atoms: _198  and  _201
REMARK   89  A    between atoms: _201  and  _202
REMARK   90  A    between atoms: _202  and  _203
REMARK   91  A    between atoms: _203  and  _204
REMARK   92  A    between atoms: _204  and  _205
REMARK   93  A    between atoms: _209  and  _211
REMARK   94  A    between atoms: _211  and  _212
REMARK   95  A    between atoms: _214  and  _216
REMARK   96  A    between atoms: _216  and  _217
REMARK   97  A    between atoms: _216  and  _219
REMARK   98  A    between atoms: _219  and  _220
REMARK   99  A    between atoms: _223  and  _225
REMARK  100  A    between atoms: _225  and  _226
REMARK  101  A    between atoms: _228  and  _230
REMARK  102  A    between atoms: _230  and  _231
REMARK  103  A    between atoms: _230  and  _233
REMARK  104  A    between atoms: _233  and  _234
REMARK  105  A    between atoms: _234  and  _235
REMARK  106  A    between atoms: _235  and  _236
REMARK  107  A    between atoms: _236  and  _237
REMARK  108  A    between atoms: _241  and  _243
REMARK  109  A    between atoms: _243  and  _244
REMARK  110  A    between atoms: _243  and  _246
REMARK  111  A    between atoms: _246  and  _247
REMARK  112  A    between atoms: _250  and  _252
REMARK  113  A    between atoms: _252  and  _253
REMARK  114  A    between atoms: _252  and  _255
REMARK  115  A    between atoms: _255  and  _256
REMARK  116  A    between atoms: _262  and  _264
REMARK  117  A    between atoms: _264  and  _265
REMARK  118  A    between atoms: _264  and  _267
REMARK  119  A    between atoms: _267  and  _268
REMARK  120  A    between atoms: _271  and  _273
REMARK  121  A    between atoms: _273  and  _274
REMARK  122  A    between atoms: _273  and  _276
REMARK  123  A    between atoms: _276  and  _277
REMARK  124  A    between atoms: _277  and  _278
REMARK  125  A    between atoms: _278  and  _279
REMARK  126  A    between atoms: _279  and  _280
REMARK  127  A    between atoms: _284  and  _286
REMARK  128  A    between atoms: _286  and  _287
REMARK  129  A    between atoms: _286  and  _289
REMARK  130  A    between atoms: _289  and  _290
REMARK  131  A    between atoms: _293  and  _295
REMARK  132  A    between atoms: _295  and  _296
REMARK  133  A    between atoms: _295  and  _298
REMARK  134  A    between atoms: _301  and  _303
REMARK  135  A    between atoms: _303  and  _304
REMARK  136  A    between atoms: _308  and  _309
REMARK  137  A    between atoms: _314  and  _316
REMARK  138  A    between atoms: _316  and  _317
REMARK  139  A    between atoms: _316  and  _319
REMARK  140  A    between atoms: _319  and  _320
REMARK  141  A    between atoms: _322  and  _324
REMARK  142  A    between atoms: _324  and  _325
REMARK  143  A    between atoms: _324  and  _327
REMARK  144  A    between atoms: _327  and  _328
REMARK  145  A    between atoms: _331  and  _333
REMARK  146  A    between atoms: _333  and  _334
REMARK  147  A    between atoms: _333  and  _336
REMARK  148  A    between atoms: _336  and  _337
REMARK  149  A    between atoms: _340  and  _342
REMARK  150  A    between atoms: _342  and  _343
REMARK  151  A    between atoms: _342  and  _345
REMARK  152  A    between atoms: _348  and  _350
REMARK  153  A    between atoms: _350  and  _351
REMARK  154  A    between atoms: _350  and  _353
REMARK  155  A    between atoms: _356  and  _358
REMARK  156  A    between atoms: _358  and  _359
REMARK  157  A    between atoms: _358  and  _361
REMARK  158  A    between atoms: _361  and  _362
REMARK  159  A    between atoms: _362  and  _363
REMARK  160  A    between atoms: _366  and  _368
REMARK  161  A    between atoms: _368  and  _369
REMARK  162  A    between atoms: _368  and  _371
REMARK  163  A    between atoms: _373  and  _375
REMARK  164  A    between atoms: _375  and  _376
REMARK  165  A    between atoms: _375  and  _378
REMARK  166  A    between atoms: _381  and  _383
REMARK  167  A    between atoms: _383  and  _384
REMARK  168  A    between atoms: _383  and  _386
REMARK  169  A    between atoms: _389  and  _391
REMARK  170  A    between atoms: _391  and  _392
REMARK  171  A    between atoms: _395  and  _397
REMARK  172  A    between atoms: _397  and  _398
REMARK  173  A    between atoms: _401  and  _403
REMARK  174  A    between atoms: _403  and  _404
REMARK  175  A    between atoms: _403  and  _406
REMARK  176  A    between atoms: _406  and  _407
REMARK  177  A    between atoms: _410  and  _412
REMARK  178  A    between atoms: _412  and  _413
REMARK  179  A    between atoms: _412  and  _415
REMARK  180  A    between atoms: _415  and  _416
REMARK  181  A    between atoms: _416  and  _417
REMARK  182  A    between atoms: _422  and  _424
REMARK  183  A    between atoms: _424  and  _425
REMARK  184  A    between atoms: _424  and  _427
REMARK  185  A    between atoms: _430  and  _432
REMARK  186  A    between atoms: _432  and  _433
REMARK  187  A    between atoms: _432  and  _435
REMARK  188  A    between atoms: _435  and  _436
REMARK  189  A    between atoms: _436  and  _437
REMARK  190  A    between atoms: _437  and  _438
REMARK  191  A    between atoms: _447  and  _449
REMARK  192  A    between atoms: _449  and  _450
REMARK  193  A    between atoms: _449  and  _452
REMARK  194  A    between atoms: _452  and  _453
REMARK  195  A    between atoms: _456  and  _458
REMARK  196  A    between atoms: _458  and  _459
REMARK  197  A    between atoms: _462  and  _464
REMARK  198  A    between atoms: _464  and  _465
REMARK  199  A    between atoms: _464  and  _467
REMARK                            x       y       z     vdW  Elec       q    Type
REMARK                         _______ _______ _______ _____ _____    ______ ____
ROOT
ATOM      1  O   HOH     1     -17.620   7.652  13.859  0.00  0.00    +0.000 OA
ENDROOT
TORSDOF 0
REMARK  Name = ../refined-set-2016/4ozj/4ozj_pocket.pdb
REMARK  199 active torsions:
REMARK  status: ('A' for Active; 'I' for Inactive)
REMARK    1  A    between atoms: _1  and  _3
REMARK    2  A    between atoms: _3  and  _4
REMARK    3  A    between atoms: _3  and  _6
REMARK    4  A    between atoms: _6  and  _7
REMARK    5  A    between atoms: _7  and  _8
REMARK    6  A    between atoms: _10  and  _12
REMARK    7  A    between atoms: _12  and  _13
REMARK    8  A    between atoms: _16  and  _18
REMARK    9  A    between atoms: _18  and  _19
REMARK   10  A    between atoms: _18  and  _21
REMARK   11  A    between atoms: _21  and  _22
REMARK   12  A    between atoms: _25  and  _27
REMARK   13  A    between atoms: _27  and  _28
REMARK   14  A    between atoms: _27  and  _30
REMARK   15  A    between atoms: _30  and  _31
REMARK   16  A    between atoms: _34  and  _36
REMARK   17  A    between atoms: _36  and  _37
REMARK   18  A    between atoms: _36  and  _39
REMARK   19  A    between atoms: _39  and  _40
REMARK   20  A    between atoms: _40  and  _41
REMARK   21  A    between atoms: _41  and  _42
REMARK   22  A    between atoms: _51  and  _53
REMARK   23  A    between atoms: _53  and  _54
REMARK   24  A    between atoms: _53  and  _56
REMARK   25  A    between atoms: _59  and  _61
REMARK   26  A    between atoms: _61  and  _62
REMARK   27  A    between atoms: _61  and  _64
REMARK   28  A    between atoms: _64  and  _65
REMARK   29  A    between atoms: _67  and  _69
REMARK   30  A    between atoms: _69  and  _70
REMARK   31  A    between atoms: _72  and  _74
REMARK   32  A    between atoms: _74  and  _75
REMARK   33  A    between atoms: _74  and  _77
REMARK   34  A    between atoms: _77  and  _78
REMARK   35  A    between atoms: _78  and  _79
REMARK   36  A    between atoms: _79  and  _80
REMARK   37  A    between atoms: _89  and  _91
REMARK   38  A    between atoms: _91  and  _92
REMARK   39  A    between atoms: _94  and  _96
REMARK   40  A    between atoms: _96  and  _97
REMARK   41  A    between atoms: _96  and  _99
REMARK   42  A    between atoms: _99  and  _100
REMARK   43  A    between atoms: _102  and  _104
REMARK   44  A    between atoms: _104  and  _105
REMARK   45  A    between atoms: _104  and  _107
REMARK   46  A    between atoms: _107  and  _108
REMARK   47  A    between atoms: _111  and  _113
REMARK   48  A    between atoms: _113  and  _114
REMARK   49  A    between atoms: _113  and  _116
REMARK   50  A    between atoms: _116  and  _117
REMARK   51  A    between atoms: _120  and  _122
REMARK   52  A    between atoms: _122  and  _123
REMARK   53  A    between atoms: _122  and  _125
REMARK   54  A    between atoms: _125  and  _126
REMARK   55  A    between atoms: _131  and  _133
REMARK   56  A    between atoms: _133  and  _134
REMARK   57  A    between atoms: _133  and  _136
REMARK   58  A    between atoms: _136  and  _137
REMARK   59  A    between atoms: _137  and  _138
REMARK   60  A    between atoms: _143  and  _145
REMARK   61  A    between atoms: _145  and  _146
REMARK   62  A    between atoms: _145  and  _148
REMARK   63  A    between atoms: _148  and  _149
REMARK   64  A    between atoms: _149  and  _150
REMARK   65  A    between atoms: _150  and  _151
REMARK   66  A    between atoms: _151  and  _152
REMARK   67  A    between atoms: _156  and  _158
REMARK   68  A    between atoms: _158  and  _159
REMARK   69  A    between atoms: _158  and  _161
REMARK   70  A    between atoms: _164  and  _166
REMARK   71  A    between atoms: _166  and  _167
REMARK   72  A    between atoms: _166  and  _169
REMARK   73  A    between atoms: _169  and  _170
REMARK   74  A    between atoms: _170  and  _171
REMARK   75  A    between atoms: _171  and  _172
REMARK   76  A    between atoms: _172  and  _173
REMARK   77  A    between atoms: _177  and  _179
REMARK   78  A    between atoms: _179  and  _180
REMARK   79  A    between atoms: _179  and  _182
REMARK   80  A    between atoms: _182  and  _183
REMARK   81  A    between atoms: _186  and  _188
REMARK   82  A    between atoms: _188  and  _189
REMARK   83  A    between atoms: _188  and  _191
REMARK   84  A    between atoms: _191  and  _192
REMARK   85  A    between atoms: _192  and  _193
REMARK   86  A    between atoms: _196  and  _198
REMARK   87  A    between atoms: _198  and  _199
REMARK   88  A    between atoms: _198  and  _201
REMARK   89  A    between atoms: _201  and  _202
REMARK   90  A    between atoms: _202  and  _203
REMARK   91  A    between atoms: _203  and  _204
REMARK   92  A    between atoms: _204  and  _205
REMARK   93  A    between atoms: _209  and  _211
REMARK   94  A    between atoms: _211  and  _212
REMARK   95  A    between atoms: _214  and  _216
REMARK   96  A    between atoms: _216  and  _217
REMARK   97  A    between atoms: _216  and  _219
REMARK   98  A    between atoms: _219  and  _220
REMARK   99  A    between atoms: _223  and  _225
REMARK  100  A    between atoms: _225  and  _226
REMARK  101  A    between atoms: _228  and  _230
REMARK  102  A    between atoms: _230  and  _231
REMARK  103  A    between atoms: _230  and  _233
REMARK  104  A    between atoms: _233  and  _234
REMARK  105  A    between atoms: _234  and  _235
REMARK  106  A    between atoms: _235  and  _236
REMARK  107  A    between atoms: _236  and  _237
REMARK  108  A    between atoms: _241  and  _243
REMARK  109  A    between atoms: _243  and  _244
REMARK  110  A    between atoms: _243  and  _246
REMARK  111  A    between atoms: _246  and  _247
REMARK  112  A    between atoms: _250  and  _252
REMARK  113  A    between atoms: _252  and  _253
REMARK  114  A    between atoms: _252  and  _255
REMARK  115  A    between atoms: _255  and  _256
REMARK  116  A    between atoms: _262  and  _264
REMARK  117  A    between atoms: _264  and  _265
REMARK  118  A    between atoms: _264  and  _267
REMARK  119  A    between atoms: _267  and  _268
REMARK  120  A    between atoms: _271  and  _273
REMARK  121  A    between atoms: _273  and  _274
REMARK  122  A    between atoms: _273  and  _276
REMARK  123  A    between atoms: _276  and  _277
REMARK  124  A    between atoms: _277  and  _278
REMARK  125  A    between atoms: _278  and  _279
REMARK  126  A    between atoms: _279  and  _280
REMARK  127  A    between atoms: _284  and  _286
REMARK  128  A    between atoms: _286  and  _287
REMARK  129  A    between atoms: _286  and  _289
REMARK  130  A    between atoms: _289  and  _290
REMARK  131  A    between atoms: _293  and  _295
REMARK  132  A    between atoms: _295  and  _296
REMARK  133  A    between atoms: _295  and  _298
REMARK  134  A    between atoms: _301  and  _303
REMARK  135  A    between atoms: _303  and  _304
REMARK  136  A    between atoms: _308  and  _309
REMARK  137  A    between atoms: _314  and  _316
REMARK  138  A    between atoms: _316  and  _317
REMARK  139  A    between atoms: _316  and  _319
REMARK  140  A    between atoms: _319  and  _320
REMARK  141  A    between atoms: _322  and  _324
REMARK  142  A    between atoms: _324  and  _325
REMARK  143  A    between atoms: _324  and  _327
REMARK  144  A    between atoms: _327  and  _328
REMARK  145  A    between atoms: _331  and  _333
REMARK  146  A    between atoms: _333  and  _334
REMARK  147  A    between atoms: _333  and  _336
REMARK  148  A    between atoms: _336  and  _337
REMARK  149  A    between atoms: _340  and  _342
REMARK  150  A    between atoms: _342  and  _343
REMARK  151  A    between atoms: _342  and  _345
REMARK  152  A    between atoms: _348  and  _350
REMARK  153  A    between atoms: _350  and  _351
REMARK  154  A    between atoms: _350  and  _353
REMARK  155  A    between atoms: _356  and  _358
REMARK  156  A    between atoms: _358  and  _359
REMARK  157  A    between atoms: _358  and  _361
REMARK  158  A    between atoms: _361  and  _362
REMARK  159  A    between atoms: _362  and  _363
REMARK  160  A    between atoms: _366  and  _368
REMARK  161  A    between atoms: _368  and  _369
REMARK  162  A    between atoms: _368  and  _371
REMARK  163  A    between atoms: _373  and  _375
REMARK  164  A    between atoms: _375  and  _376
REMARK  165  A    between atoms: _375  and  _378
REMARK  166  A    between atoms: _381  and  _383
REMARK  167  A    between atoms: _383  and  _384
REMARK  168  A    between atoms: _383  and  _386
REMARK  169  A    between atoms: _389  and  _391
REMARK  170  A    between atoms: _391  and  _392
REMARK  171  A    between atoms: _395  and  _397
REMARK  172  A    between atoms: _397  and  _398
REMARK  173  A    between atoms: _401  and  _403
REMARK  174  A    between atoms: _403  and  _404
REMARK  175  A    between atoms: _403  and  _406
REMARK  176  A    between atoms: _406  and  _407
REMARK  177  A    between atoms: _410  and  _412
REMARK  178  A    between atoms: _412  and  _413
REMARK  179  A    between atoms: _412  and  _415
REMARK  180  A    between atoms: _415  and  _416
REMARK  181  A    between atoms: _416  and  _417
REMARK  182  A    between atoms: _422  and  _424
REMARK  183  A    between atoms: _424  and  _425
REMARK  184  A    between atoms: _424  and  _427
REMARK  185  A    between atoms: _430  and  _432
REMARK  186  A    between atoms: _432  and  _433
REMARK  187  A    between atoms: _432  and  _435
REMARK  188  A    between atoms: _435  and  _436
REMARK  189  A    between atoms: _436  and  _437
REMARK  190  A    between atoms: _437  and  _438
REMARK  191  A    between atoms: _447  and  _449
REMARK  192  A    between atoms: _449  and  _450
REMARK  193  A    between atoms: _449  and  _452
REMARK  194  A    between atoms: _452  and  _453
REMARK  195  A    between atoms: _456  and  _458
REMARK  196  A    between atoms: _458  and  _459
REMARK  197  A    between atoms: _462  and  _464
REMARK  198  A    between atoms: _464  and  _465
REMARK  199  A    between atoms: _464  and  _467
REMARK                            x       y       z     vdW  Elec       q    Type
REMARK                         _______ _______ _______ _____ _____    ______ ____
ROOT
ATOM      1  O   HOH     1     -14.098   4.775   1.468  0.00  0.00    +0.000 OA
ENDROOT
TORSDOF 0
REMARK  Name = ../refined-set-2016/4ozj/4ozj_pocket.pdb
REMARK  199 active torsions:
REMARK  status: ('A' for Active; 'I' for Inactive)
REMARK    1  A    between atoms: _1  and  _3
REMARK    2  A    between atoms: _3  and  _4
REMARK    3  A    between atoms: _3  and  _6
REMARK    4  A    between atoms: _6  and  _7
REMARK    5  A    between atoms: _7  and  _8
REMARK    6  A    between atoms: _10  and  _12
REMARK    7  A    between atoms: _12  and  _13
REMARK    8  A    between atoms: _16  and  _18
REMARK    9  A    between atoms: _18  and  _19
REMARK   10  A    between atoms: _18  and  _21
REMARK   11  A    between atoms: _21  and  _22
REMARK   12  A    between atoms: _25  and  _27
REMARK   13  A    between atoms: _27  and  _28
REMARK   14  A    between atoms: _27  and  _30
REMARK   15  A    between atoms: _30  and  _31
REMARK   16  A    between atoms: _34  and  _36
REMARK   17  A    between atoms: _36  and  _37
REMARK   18  A    between atoms: _36  and  _39
REMARK   19  A    between atoms: _39  and  _40
REMARK   20  A    between atoms: _40  and  _41
REMARK   21  A    between atoms: _41  and  _42
REMARK   22  A    between atoms: _51  and  _53
REMARK   23  A    between atoms: _53  and  _54
REMARK   24  A    between atoms: _53  and  _56
REMARK   25  A    between atoms: _59  and  _61
REMARK   26  A    between atoms: _61  and  _62
REMARK   27  A    between atoms: _61  and  _64
REMARK   28  A    between atoms: _64  and  _65
REMARK   29  A    between atoms: _67  and  _69
REMARK   30  A    between atoms: _69  and  _70
REMARK   31  A    between atoms: _72  and  _74
REMARK   32  A    between atoms: _74  and  _75
REMARK   33  A    between atoms: _74  and  _77
REMARK   34  A    between atoms: _77  and  _78
REMARK   35  A    between atoms: _78  and  _79
REMARK   36  A    between atoms: _79  and  _80
REMARK   37  A    between atoms: _89  and  _91
REMARK   38  A    between atoms: _91  and  _92
REMARK   39  A    between atoms: _94  and  _96
REMARK   40  A    between atoms: _96  and  _97
REMARK   41  A    between atoms: _96  and  _99
REMARK   42  A    between atoms: _99  and  _100
REMARK   43  A    between atoms: _102  and  _104
REMARK   44  A    between atoms: _104  and  _105
REMARK   45  A    between atoms: _104  and  _107
REMARK   46  A    between atoms: _107  and  _108
REMARK   47  A    between atoms: _111  and  _113
REMARK   48  A    between atoms: _113  and  _114
REMARK   49  A    between atoms: _113  and  _116
REMARK   50  A    between atoms: _116  and  _117
REMARK   51  A    between atoms: _120  and  _122
REMARK   52  A    between atoms: _122  and  _123
REMARK   53  A    between atoms: _122  and  _125
REMARK   54  A    between atoms: _125  and  _126
REMARK   55  A    between atoms: _131  and  _133
REMARK   56  A    between atoms: _133  and  _134
REMARK   57  A    between atoms: _133  and  _136
REMARK   58  A    between atoms: _136  and  _137
REMARK   59  A    between atoms: _137  and  _138
REMARK   60  A    between atoms: _143  and  _145
REMARK   61  A    between atoms: _145  and  _146
REMARK   62  A    between atoms: _145  and  _148
REMARK   63  A    between atoms: _148  and  _149
REMARK   64  A    between atoms: _149  and  _150
REMARK   65  A    between atoms: _150  and  _151
REMARK   66  A    between atoms: _151  and  _152
REMARK   67  A    between atoms: _156  and  _158
REMARK   68  A    between atoms: _158  and  _159
REMARK   69  A    between atoms: _158  and  _161
REMARK   70  A    between atoms: _164  and  _166
REMARK   71  A    between atoms: _166  and  _167
REMARK   72  A    between atoms: _166  and  _169
REMARK   73  A    between atoms: _169  and  _170
REMARK   74  A    between atoms: _170  and  _171
REMARK   75  A    between atoms: _171  and  _172
REMARK   76  A    between atoms: _172  and  _173
REMARK   77  A    between atoms: _177  and  _179
REMARK   78  A    between atoms: _179  and  _180
REMARK   79  A    between atoms: _179  and  _182
REMARK   80  A    between atoms: _182  and  _183
REMARK   81  A    between atoms: _186  and  _188
REMARK   82  A    between atoms: _188  and  _189
REMARK   83  A    between atoms: _188  and  _191
REMARK   84  A    between atoms: _191  and  _192
REMARK   85  A    between atoms: _192  and  _193
REMARK   86  A    between atoms: _196  and  _198
REMARK   87  A    between atoms: _198  and  _199
REMARK   88  A    between atoms: _198  and  _201
REMARK   89  A    between atoms: _201  and  _202
REMARK   90  A    between atoms: _202  and  _203
REMARK   91  A    between atoms: _203  and  _204
REMARK   92  A    between atoms: _204  and  _205
REMARK   93  A    between atoms: _209  and  _211
REMARK   94  A    between atoms: _211  and  _212
REMARK   95  A    between atoms: _214  and  _216
REMARK   96  A    between atoms: _216  and  _217
REMARK   97  A    between atoms: _216  and  _219
REMARK   98  A    between atoms: _219  and  _220
REMARK   99  A    between atoms: _223  and  _225
REMARK  100  A    between atoms: _225  and  _226
REMARK  101  A    between atoms: _228  and  _230
REMARK  102  A    between atoms: _230  and  _231
REMARK  103  A    between atoms: _230  and  _233
REMARK  104  A    between atoms: _233  and  _234
REMARK  105  A    between atoms: _234  and  _235
REMARK  106  A    between atoms: _235  and  _236
REMARK  107  A    between atoms: _236  and  _237
REMARK  108  A    between atoms: _241  and  _243
REMARK  109  A    between atoms: _243  and  _244
REMARK  110  A    between atoms: _243  and  _246
REMARK  111  A    between atoms: _246  and  _247
REMARK  112  A    between atoms: _250  and  _252
REMARK  113  A    between atoms: _252  and  _253
REMARK  114  A    between atoms: _252  and  _255
REMARK  115  A    between atoms: _255  and  _256
REMARK  116  A    between atoms: _262  and  _264
REMARK  117  A    between atoms: _264  and  _265
REMARK  118  A    between atoms: _264  and  _267
REMARK  119  A    between atoms: _267  and  _268
REMARK  120  A    between atoms: _271  and  _273
REMARK  121  A    between atoms: _273  and  _274
REMARK  122  A    between atoms: _273  and  _276
REMARK  123  A    between atoms: _276  and  _277
REMARK  124  A    between atoms: _277  and  _278
REMARK  125  A    between atoms: _278  and  _279
REMARK  126  A    between atoms: _279  and  _280
REMARK  127  A    between atoms: _284  and  _286
REMARK  128  A    between atoms: _286  and  _287
REMARK  129  A    between atoms: _286  and  _289
REMARK  130  A    between atoms: _289  and  _290
REMARK  131  A    between atoms: _293  and  _295
REMARK  132  A    between atoms: _295  and  _296
REMARK  133  A    between atoms: _295  and  _298
REMARK  134  A    between atoms: _301  and  _303
REMARK  135  A    between atoms: _303  and  _304
REMARK  136  A    between atoms: _308  and  _309
REMARK  137  A    between atoms: _314  and  _316
REMARK  138  A    between atoms: _316  and  _317
REMARK  139  A    between atoms: _316  and  _319
REMARK  140  A    between atoms: _319  and  _320
REMARK  141  A    between atoms: _322  and  _324
REMARK  142  A    between atoms: _324  and  _325
REMARK  143  A    between atoms: _324  and  _327
REMARK  144  A    between atoms: _327  and  _328
REMARK  145  A    between atoms: _331  and  _333
REMARK  146  A    between atoms: _333  and  _334
REMARK  147  A    between atoms: _333  and  _336
REMARK  148  A    between atoms: _336  and  _337
REMARK  149  A    between atoms: _340  and  _342
REMARK  150  A    between atoms: _342  and  _343
REMARK  151  A    between atoms: _342  and  _345
REMARK  152  A    between atoms: _348  and  _350
REMARK  153  A    between atoms: _350  and  _351
REMARK  154  A    between atoms: _350  and  _353
REMARK  155  A    between atoms: _356  and  _358
REMARK  156  A    between atoms: _358  and  _359
REMARK  157  A    between atoms: _358  and  _361
REMARK  158  A    between atoms: _361  and  _362
REMARK  159  A    between atoms: _362  and  _363
REMARK  160  A    between atoms: _366  and  _368
REMARK  161  A    between atoms: _368  and  _369
REMARK  162  A    between atoms: _368  and  _371
REMARK  163  A    between atoms: _373  and  _375
REMARK  164  A    between atoms: _375  and  _376
REMARK  165  A    between atoms: _375  and  _378
REMARK  166  A    between atoms: _381  and  _383
REMARK  167  A    between atoms: _383  and  _384
REMARK  168  A    between atoms: _383  and  _386
REMARK  169  A    between atoms: _389  and  _391
REMARK  170  A    between atoms: _391  and  _392
REMARK  171  A    between atoms: _395  and  _397
REMARK  172  A    between atoms: _397  and  _398
REMARK  173  A    between atoms: _401  and  _403
REMARK  174  A    between atoms: _403  and  _404
REMARK  175  A    between atoms: _403  and  _406
REMARK  176  A    between atoms: _406  and  _407
REMARK  177  A    between atoms: _410  and  _412
REMARK  178  A    between atoms: _412  and  _413
REMARK  179  A    between atoms: _412  and  _415
REMARK  180  A    between atoms: _415  and  _416
REMARK  181  A    between atoms: _416  and  _417
REMARK  182  A    between atoms: _422  and  _424
REMARK  183  A    between atoms: _424  and  _425
REMARK  184  A    between atoms: _424  and  _427
REMARK  185  A    between atoms: _430  and  _432
REMARK  186  A    between atoms: _432  and  _433
REMARK  187  A    between atoms: _432  and  _435
REMARK  188  A    between atoms: _435  and  _436
REMARK  189  A    between atoms: _436  and  _437
REMARK  190  A    between atoms: _437  and  _438
REMARK  191  A    between atoms: _447  and  _449
REMARK  192  A    between atoms: _449  and  _450
REMARK  193  A    between atoms: _449  and  _452
REMARK  194  A    between atoms: _452  and  _453
REMARK  195  A    between atoms: _456  and  _458
REMARK  196  A    between atoms: _458  and  _459
REMARK  197  A    between atoms: _462  and  _464
REMARK  198  A    between atoms: _464  and  _465
REMARK  199  A    between atoms: _464  and  _467
REMARK                            x       y       z     vdW  Elec       q    Type
REMARK                         _______ _______ _______ _____ _____    ______ ____
ROOT
ATOM      1  O   HOH     1     -14.473   6.641   3.585  0.00  0.00    +0.000 OA
ENDROOT
TORSDOF 0
REMARK  Name = ../refined-set-2016/4ozj/4ozj_pocket.pdb
REMARK  199 active torsions:
REMARK  status: ('A' for Active; 'I' for Inactive)
REMARK    1  A    between atoms: _1  and  _3
REMARK    2  A    between atoms: _3  and  _4
REMARK    3  A    between atoms: _3  and  _6
REMARK    4  A    between atoms: _6  and  _7
REMARK    5  A    between atoms: _7  and  _8
REMARK    6  A    between atoms: _10  and  _12
REMARK    7  A    between atoms: _12  and  _13
REMARK    8  A    between atoms: _16  and  _18
REMARK    9  A    between atoms: _18  and  _19
REMARK   10  A    between atoms: _18  and  _21
REMARK   11  A    between atoms: _21  and  _22
REMARK   12  A    between atoms: _25  and  _27
REMARK   13  A    between atoms: _27  and  _28
REMARK   14  A    between atoms: _27  and  _30
REMARK   15  A    between atoms: _30  and  _31
REMARK   16  A    between atoms: _34  and  _36
REMARK   17  A    between atoms: _36  and  _37
REMARK   18  A    between atoms: _36  and  _39
REMARK   19  A    between atoms: _39  and  _40
REMARK   20  A    between atoms: _40  and  _41
REMARK   21  A    between atoms: _41  and  _42
REMARK   22  A    between atoms: _51  and  _53
REMARK   23  A    between atoms: _53  and  _54
REMARK   24  A    between atoms: _53  and  _56
REMARK   25  A    between atoms: _59  and  _61
REMARK   26  A    between atoms: _61  and  _62
REMARK   27  A    between atoms: _61  and  _64
REMARK   28  A    between atoms: _64  and  _65
REMARK   29  A    between atoms: _67  and  _69
REMARK   30  A    between atoms: _69  and  _70
REMARK   31  A    between atoms: _72  and  _74
REMARK   32  A    between atoms: _74  and  _75
REMARK   33  A    between atoms: _74  and  _77
REMARK   34  A    between atoms: _77  and  _78
REMARK   35  A    between atoms: _78  and  _79
REMARK   36  A    between atoms: _79  and  _80
REMARK   37  A    between atoms: _89  and  _91
REMARK   38  A    between atoms: _91  and  _92
REMARK   39  A    between atoms: _94  and  _96
REMARK   40  A    between atoms: _96  and  _97
REMARK   41  A    between atoms: _96  and  _99
REMARK   42  A    between atoms: _99  and  _100
REMARK   43  A    between atoms: _102  and  _104
REMARK   44  A    between atoms: _104  and  _105
REMARK   45  A    between atoms: _104  and  _107
REMARK   46  A    between atoms: _107  and  _108
REMARK   47  A    between atoms: _111  and  _113
REMARK   48  A    between atoms: _113  and  _114
REMARK   49  A    between atoms: _113  and  _116
REMARK   50  A    between atoms: _116  and  _117
REMARK   51  A    between atoms: _120  and  _122
REMARK   52  A    between atoms: _122  and  _123
REMARK   53  A    between atoms: _122  and  _125
REMARK   54  A    between atoms: _125  and  _126
REMARK   55  A    between atoms: _131  and  _133
REMARK   56  A    between atoms: _133  and  _134
REMARK   57  A    between atoms: _133  and  _136
REMARK   58  A    between atoms: _136  and  _137
REMARK   59  A    between atoms: _137  and  _138
REMARK   60  A    between atoms: _143  and  _145
REMARK   61  A    between atoms: _145  and  _146
REMARK   62  A    between atoms: _145  and  _148
REMARK   63  A    between atoms: _148  and  _149
REMARK   64  A    between atoms: _149  and  _150
REMARK   65  A    between atoms: _150  and  _151
REMARK   66  A    between atoms: _151  and  _152
REMARK   67  A    between atoms: _156  and  _158
REMARK   68  A    between atoms: _158  and  _159
REMARK   69  A    between atoms: _158  and  _161
REMARK   70  A    between atoms: _164  and  _166
REMARK   71  A    between atoms: _166  and  _167
REMARK   72  A    between atoms: _166  and  _169
REMARK   73  A    between atoms: _169  and  _170
REMARK   74  A    between atoms: _170  and  _171
REMARK   75  A    between atoms: _171  and  _172
REMARK   76  A    between atoms: _172  and  _173
REMARK   77  A    between atoms: _177  and  _179
REMARK   78  A    between atoms: _179  and  _180
REMARK   79  A    between atoms: _179  and  _182
REMARK   80  A    between atoms: _182  and  _183
REMARK   81  A    between atoms: _186  and  _188
REMARK   82  A    between atoms: _188  and  _189
REMARK   83  A    between atoms: _188  and  _191
REMARK   84  A    between atoms: _191  and  _192
REMARK   85  A    between atoms: _192  and  _193
REMARK   86  A    between atoms: _196  and  _198
REMARK   87  A    between atoms: _198  and  _199
REMARK   88  A    between atoms: _198  and  _201
REMARK   89  A    between atoms: _201  and  _202
REMARK   90  A    between atoms: _202  and  _203
REMARK   91  A    between atoms: _203  and  _204
REMARK   92  A    between atoms: _204  and  _205
REMARK   93  A    between atoms: _209  and  _211
REMARK   94  A    between atoms: _211  and  _212
REMARK   95  A    between atoms: _214  and  _216
REMARK   96  A    between atoms: _216  and  _217
REMARK   97  A    between atoms: _216  and  _219
REMARK   98  A    between atoms: _219  and  _220
REMARK   99  A    between atoms: _223  and  _225
REMARK  100  A    between atoms: _225  and  _226
REMARK  101  A    between atoms: _228  and  _230
REMARK  102  A    between atoms: _230  and  _231
REMARK  103  A    between atoms: _230  and  _233
REMARK  104  A    between atoms: _233  and  _234
REMARK  105  A    between atoms: _234  and  _235
REMARK  106  A    between atoms: _235  and  _236
REMARK  107  A    between atoms: _236  and  _237
REMARK  108  A    between atoms: _241  and  _243
REMARK  109  A    between atoms: _243  and  _244
REMARK  110  A    between atoms: _243  and  _246
REMARK  111  A    between atoms: _246  and  _247
REMARK  112  A    between atoms: _250  and  _252
REMARK  113  A    between atoms: _252  and  _253
REMARK  114  A    between atoms: _252  and  _255
REMARK  115  A    between atoms: _255  and  _256
REMARK  116  A    between atoms: _262  and  _264
REMARK  117  A    between atoms: _264  and  _265
REMARK  118  A    between atoms: _264  and  _267
REMARK  119  A    between atoms: _267  and  _268
REMARK  120  A    between atoms: _271  and  _273
REMARK  121  A    between atoms: _273  and  _274
REMARK  122  A    between atoms: _273  and  _276
REMARK  123  A    between atoms: _276  and  _277
REMARK  124  A    between atoms: _277  and  _278
REMARK  125  A    between atoms: _278  and  _279
REMARK  126  A    between atoms: _279  and  _280
REMARK  127  A    between atoms: _284  and  _286
REMARK  128  A    between atoms: _286  and  _287
REMARK  129  A    between atoms: _286  and  _289
REMARK  130  A    between atoms: _289  and  _290
REMARK  131  A    between atoms: _293  and  _295
REMARK  132  A    between atoms: _295  and  _296
REMARK  133  A    between atoms: _295  and  _298
REMARK  134  A    between atoms: _301  and  _303
REMARK  135  A    between atoms: _303  and  _304
REMARK  136  A    between atoms: _308  and  _309
REMARK  137  A    between atoms: _314  and  _316
REMARK  138  A    between atoms: _316  and  _317
REMARK  139  A    between atoms: _316  and  _319
REMARK  140  A    between atoms: _319  and  _320
REMARK  141  A    between atoms: _322  and  _324
REMARK  142  A    between atoms: _324  and  _325
REMARK  143  A    between atoms: _324  and  _327
REMARK  144  A    between atoms: _327  and  _328
REMARK  145  A    between atoms: _331  and  _333
REMARK  146  A    between atoms: _333  and  _334
REMARK  147  A    between atoms: _333  and  _336
REMARK  148  A    between atoms: _336  and  _337
REMARK  149  A    between atoms: _340  and  _342
REMARK  150  A    between atoms: _342  and  _343
REMARK  151  A    between atoms: _342  and  _345
REMARK  152  A    between atoms: _348  and  _350
REMARK  153  A    between atoms: _350  and  _351
REMARK  154  A    between atoms: _350  and  _353
REMARK  155  A    between atoms: _356  and  _358
REMARK  156  A    between atoms: _358  and  _359
REMARK  157  A    between atoms: _358  and  _361
REMARK  158  A    between atoms: _361  and  _362
REMARK  159  A    between atoms: _362  and  _363
REMARK  160  A    between atoms: _366  and  _368
REMARK  161  A    between atoms: _368  and  _369
REMARK  162  A    between atoms: _368  and  _371
REMARK  163  A    between atoms: _373  and  _375
REMARK  164  A    between atoms: _375  and  _376
REMARK  165  A    between atoms: _375  and  _378
REMARK  166  A    between atoms: _381  and  _383
REMARK  167  A    between atoms: _383  and  _384
REMARK  168  A    between atoms: _383  and  _386
REMARK  169  A    between atoms: _389  and  _391
REMARK  170  A    between atoms: _391  and  _392
REMARK  171  A    between atoms: _395  and  _397
REMARK  172  A    between atoms: _397  and  _398
REMARK  173  A    between atoms: _401  and  _403
REMARK  174  A    between atoms: _403  and  _404
REMARK  175  A    between atoms: _403  and  _406
REMARK  176  A    between atoms: _406  and  _407
REMARK  177  A    between atoms: _410  and  _412
REMARK  178  A    between atoms: _412  and  _413
REMARK  179  A    between atoms: _412  and  _415
REMARK  180  A    between atoms: _415  and  _416
REMARK  181  A    between atoms: _416  and  _417
REMARK  182  A    between atoms: _422  and  _424
REMARK  183  A    between atoms: _424  and  _425
REMARK  184  A    between atoms: _424  and  _427
REMARK  185  A    between atoms: _430  and  _432
REMARK  186  A    between atoms: _432  and  _433
REMARK  187  A    between atoms: _432  and  _435
REMARK  188  A    between atoms: _435  and  _436
REMARK  189  A    between atoms: _436  and  _437
REMARK  190  A    between atoms: _437  and  _438
REMARK  191  A    between atoms: _447  and  _449
REMARK  192  A    between atoms: _449  and  _450
REMARK  193  A    between atoms: _449  and  _452
REMARK  194  A    between atoms: _452  and  _453
REMARK  195  A    between atoms: _456  and  _458
REMARK  196  A    between atoms: _458  and  _459
REMARK  197  A    between atoms: _462  and  _464
REMARK  198  A    between atoms: _464  and  _465
REMARK  199  A    between atoms: _464  and  _467
REMARK                            x       y       z     vdW  Elec       q    Type
REMARK                         _______ _______ _______ _____ _____    ______ ____
ROOT
ATOM      1  O   HOH     1     -17.541   3.323   5.311  0.00  0.00    +0.000 OA
ENDROOT
TORSDOF 0
REMARK  Name = ../refined-set-2016/4ozj/4ozj_pocket.pdb
REMARK  199 active torsions:
REMARK  status: ('A' for Active; 'I' for Inactive)
REMARK    1  A    between atoms: _1  and  _3
REMARK    2  A    between atoms: _3  and  _4
REMARK    3  A    between atoms: _3  and  _6
REMARK    4  A    between atoms: _6  and  _7
REMARK    5  A    between atoms: _7  and  _8
REMARK    6  A    between atoms: _10  and  _12
REMARK    7  A    between atoms: _12  and  _13
REMARK    8  A    between atoms: _16  and  _18
REMARK    9  A    between atoms: _18  and  _19
REMARK   10  A    between atoms: _18  and  _21
REMARK   11  A    between atoms: _21  and  _22
REMARK   12  A    between atoms: _25  and  _27
REMARK   13  A    between atoms: _27  and  _28
REMARK   14  A    between atoms: _27  and  _30
REMARK   15  A    between atoms: _30  and  _31
REMARK   16  A    between atoms: _34  and  _36
REMARK   17  A    between atoms: _36  and  _37
REMARK   18  A    between atoms: _36  and  _39
REMARK   19  A    between atoms: _39  and  _40
REMARK   20  A    between atoms: _40  and  _41
REMARK   21  A    between atoms: _41  and  _42
REMARK   22  A    between atoms: _51  and  _53
REMARK   23  A    between atoms: _53  and  _54
REMARK   24  A    between atoms: _53  and  _56
REMARK   25  A    between atoms: _59  and  _61
REMARK   26  A    between atoms: _61  and  _62
REMARK   27  A    between atoms: _61  and  _64
REMARK   28  A    between atoms: _64  and  _65
REMARK   29  A    between atoms: _67  and  _69
REMARK   30  A    between atoms: _69  and  _70
REMARK   31  A    between atoms: _72  and  _74
REMARK   32  A    between atoms: _74  and  _75
REMARK   33  A    between atoms: _74  and  _77
REMARK   34  A    between atoms: _77  and  _78
REMARK   35  A    between atoms: _78  and  _79
REMARK   36  A    between atoms: _79  and  _80
REMARK   37  A    between atoms: _89  and  _91
REMARK   38  A    between atoms: _91  and  _92
REMARK   39  A    between atoms: _94  and  _96
REMARK   40  A    between atoms: _96  and  _97
REMARK   41  A    between atoms: _96  and  _99
REMARK   42  A    between atoms: _99  and  _100
REMARK   43  A    between atoms: _102  and  _104
REMARK   44  A    between atoms: _104  and  _105
REMARK   45  A    between atoms: _104  and  _107
REMARK   46  A    between atoms: _107  and  _108
REMARK   47  A    between atoms: _111  and  _113
REMARK   48  A    between atoms: _113  and  _114
REMARK   49  A    between atoms: _113  and  _116
REMARK   50  A    between atoms: _116  and  _117
REMARK   51  A    between atoms: _120  and  _122
REMARK   52  A    between atoms: _122  and  _123
REMARK   53  A    between atoms: _122  and  _125
REMARK   54  A    between atoms: _125  and  _126
REMARK   55  A    between atoms: _131  and  _133
REMARK   56  A    between atoms: _133  and  _134
REMARK   57  A    between atoms: _133  and  _136
REMARK   58  A    between atoms: _136  and  _137
REMARK   59  A    between atoms: _137  and  _138
REMARK   60  A    between atoms: _143  and  _145
REMARK   61  A    between atoms: _145  and  _146
REMARK   62  A    between atoms: _145  and  _148
REMARK   63  A    between atoms: _148  and  _149
REMARK   64  A    between atoms: _149  and  _150
REMARK   65  A    between atoms: _150  and  _151
REMARK   66  A    between atoms: _151  and  _152
REMARK   67  A    between atoms: _156  and  _158
REMARK   68  A    between atoms: _158  and  _159
REMARK   69  A    between atoms: _158  and  _161
REMARK   70  A    between atoms: _164  and  _166
REMARK   71  A    between atoms: _166  and  _167
REMARK   72  A    between atoms: _166  and  _169
REMARK   73  A    between atoms: _169  and  _170
REMARK   74  A    between atoms: _170  and  _171
REMARK   75  A    between atoms: _171  and  _172
REMARK   76  A    between atoms: _172  and  _173
REMARK   77  A    between atoms: _177  and  _179
REMARK   78  A    between atoms: _179  and  _180
REMARK   79  A    between atoms: _179  and  _182
REMARK   80  A    between atoms: _182  and  _183
REMARK   81  A    between atoms: _186  and  _188
REMARK   82  A    between atoms: _188  and  _189
REMARK   83  A    between atoms: _188  and  _191
REMARK   84  A    between atoms: _191  and  _192
REMARK   85  A    between atoms: _192  and  _193
REMARK   86  A    between atoms: _196  and  _198
REMARK   87  A    between atoms: _198  and  _199
REMARK   88  A    between atoms: _198  and  _201
REMARK   89  A    between atoms: _201  and  _202
REMARK   90  A    between atoms: _202  and  _203
REMARK   91  A    between atoms: _203  and  _204
REMARK   92  A    between atoms: _204  and  _205
REMARK   93  A    between atoms: _209  and  _211
REMARK   94  A    between atoms: _211  and  _212
REMARK   95  A    between atoms: _214  and  _216
REMARK   96  A    between atoms: _216  and  _217
REMARK   97  A    between atoms: _216  and  _219
REMARK   98  A    between atoms: _219  and  _220
REMARK   99  A    between atoms: _223  and  _225
REMARK  100  A    between atoms: _225  and  _226
REMARK  101  A    between atoms: _228  and  _230
REMARK  102  A    between atoms: _230  and  _231
REMARK  103  A    between atoms: _230  and  _233
REMARK  104  A    between atoms: _233  and  _234
REMARK  105  A    between atoms: _234  and  _235
REMARK  106  A    between atoms: _235  and  _236
REMARK  107  A    between atoms: _236  and  _237
REMARK  108  A    between atoms: _241  and  _243
REMARK  109  A    between atoms: _243  and  _244
REMARK  110  A    between atoms: _243  and  _246
REMARK  111  A    between atoms: _246  and  _247
REMARK  112  A    between atoms: _250  and  _252
REMARK  113  A    between atoms: _252  and  _253
REMARK  114  A    between atoms: _252  and  _255
REMARK  115  A    between atoms: _255  and  _256
REMARK  116  A    between atoms: _262  and  _264
REMARK  117  A    between atoms: _264  and  _265
REMARK  118  A    between atoms: _264  and  _267
REMARK  119  A    between atoms: _267  and  _268
REMARK  120  A    between atoms: _271  and  _273
REMARK  121  A    between atoms: _273  and  _274
REMARK  122  A    between atoms: _273  and  _276
REMARK  123  A    between atoms: _276  and  _277
REMARK  124  A    between atoms: _277  and  _278
REMARK  125  A    between atoms: _278  and  _279
REMARK  126  A    between atoms: _279  and  _280
REMARK  127  A    between atoms: _284  and  _286
REMARK  128  A    between atoms: _286  and  _287
REMARK  129  A    between atoms: _286  and  _289
REMARK  130  A    between atoms: _289  and  _290
REMARK  131  A    between atoms: _293  and  _295
REMARK  132  A    between atoms: _295  and  _296
REMARK  133  A    between atoms: _295  and  _298
REMARK  134  A    between atoms: _301  and  _303
REMARK  135  A    between atoms: _303  and  _304
REMARK  136  A    between atoms: _308  and  _309
REMARK  137  A    between atoms: _314  and  _316
REMARK  138  A    between atoms: _316  and  _317
REMARK  139  A    between atoms: _316  and  _319
REMARK  140  A    between atoms: _319  and  _320
REMARK  141  A    between atoms: _322  and  _324
REMARK  142  A    between atoms: _324  and  _325
REMARK  143  A    between atoms: _324  and  _327
REMARK  144  A    between atoms: _327  and  _328
REMARK  145  A    between atoms: _331  and  _333
REMARK  146  A    between atoms: _333  and  _334
REMARK  147  A    between atoms: _333  and  _336
REMARK  148  A    between atoms: _336  and  _337
REMARK  149  A    between atoms: _340  and  _342
REMARK  150  A    between atoms: _342  and  _343
REMARK  151  A    between atoms: _342  and  _345
REMARK  152  A    between atoms: _348  and  _350
REMARK  153  A    between atoms: _350  and  _351
REMARK  154  A    between atoms: _350  and  _353
REMARK  155  A    between atoms: _356  and  _358
REMARK  156  A    between atoms: _358  and  _359
REMARK  157  A    between atoms: _358  and  _361
REMARK  158  A    between atoms: _361  and  _362
REMARK  159  A    between atoms: _362  and  _363
REMARK  160  A    between atoms: _366  and  _368
REMARK  161  A    between atoms: _368  and  _369
REMARK  162  A    between atoms: _368  and  _371
REMARK  163  A    between atoms: _373  and  _375
REMARK  164  A    between atoms: _375  and  _376
REMARK  165  A    between atoms: _375  and  _378
REMARK  166  A    between atoms: _381  and  _383
REMARK  167  A    between atoms: _383  and  _384
REMARK  168  A    between atoms: _383  and  _386
REMARK  169  A    between atoms: _389  and  _391
REMARK  170  A    between atoms: _391  and  _392
REMARK  171  A    between atoms: _395  and  _397
REMARK  172  A    between atoms: _397  and  _398
REMARK  173  A    between atoms: _401  and  _403
REMARK  174  A    between atoms: _403  and  _404
REMARK  175  A    between atoms: _403  and  _406
REMARK  176  A    between atoms: _406  and  _407
REMARK  177  A    between atoms: _410  and  _412
REMARK  178  A    between atoms: _412  and  _413
REMARK  179  A    between atoms: _412  and  _415
REMARK  180  A    between atoms: _415  and  _416
REMARK  181  A    between atoms: _416  and  _417
REMARK  182  A    between atoms: _422  and  _424
REMARK  183  A    between atoms: _424  and  _425
REMARK  184  A    between atoms: _424  and  _427
REMARK  185  A    between atoms: _430  and  _432
REMARK  186  A    between atoms: _432  and  _433
REMARK  187  A    between atoms: _432  and  _435
REMARK  188  A    between atoms: _435  and  _436
REMARK  189  A    between atoms: _436  and  _437
REMARK  190  A    between atoms: _437  and  _438
REMARK  191  A    between atoms: _447  and  _449
REMARK  192  A    between atoms: _449  and  _450
REMARK  193  A    between atoms: _449  and  _452
REMARK  194  A    between atoms: _452  and  _453
REMARK  195  A    between atoms: _456  and  _458
REMARK  196  A    between atoms: _458  and  _459
REMARK  197  A    between atoms: _462  and  _464
REMARK  198  A    between atoms: _464  and  _465
REMARK  199  A    between atoms: _464  and  _467
REMARK                            x       y       z     vdW  Elec       q    Type
REMARK                         _______ _______ _______ _____ _____    ______ ____
ROOT
ATOM      1  O   HOH     1     -25.399   8.011   8.237  0.00  0.00    +0.000 OA
ENDROOT
TORSDOF 0
REMARK  Name = ../refined-set-2016/4ozj/4ozj_pocket.pdb
REMARK  199 active torsions:
REMARK  status: ('A' for Active; 'I' for Inactive)
REMARK    1  A    between atoms: _1  and  _3
REMARK    2  A    between atoms: _3  and  _4
REMARK    3  A    between atoms: _3  and  _6
REMARK    4  A    between atoms: _6  and  _7
REMARK    5  A    between atoms: _7  and  _8
REMARK    6  A    between atoms: _10  and  _12
REMARK    7  A    between atoms: _12  and  _13
REMARK    8  A    between atoms: _16  and  _18
REMARK    9  A    between atoms: _18  and  _19
REMARK   10  A    between atoms: _18  and  _21
REMARK   11  A    between atoms: _21  and  _22
REMARK   12  A    between atoms: _25  and  _27
REMARK   13  A    between atoms: _27  and  _28
REMARK   14  A    between atoms: _27  and  _30
REMARK   15  A    between atoms: _30  and  _31
REMARK   16  A    between atoms: _34  and  _36
REMARK   17  A    between atoms: _36  and  _37
REMARK   18  A    between atoms: _36  and  _39
REMARK   19  A    between atoms: _39  and  _40
REMARK   20  A    between atoms: _40  and  _41
REMARK   21  A    between atoms: _41  and  _42
REMARK   22  A    between atoms: _51  and  _53
REMARK   23  A    between atoms: _53  and  _54
REMARK   24  A    between atoms: _53  and  _56
REMARK   25  A    between atoms: _59  and  _61
REMARK   26  A    between atoms: _61  and  _62
REMARK   27  A    between atoms: _61  and  _64
REMARK   28  A    between atoms: _64  and  _65
REMARK   29  A    between atoms: _67  and  _69
REMARK   30  A    between atoms: _69  and  _70
REMARK   31  A    between atoms: _72  and  _74
REMARK   32  A    between atoms: _74  and  _75
REMARK   33  A    between atoms: _74  and  _77
REMARK   34  A    between atoms: _77  and  _78
REMARK   35  A    between atoms: _78  and  _79
REMARK   36  A    between atoms: _79  and  _80
REMARK   37  A    between atoms: _89  and  _91
REMARK   38  A    between atoms: _91  and  _92
REMARK   39  A    between atoms: _94  and  _96
REMARK   40  A    between atoms: _96  and  _97
REMARK   41  A    between atoms: _96  and  _99
REMARK   42  A    between atoms: _99  and  _100
REMARK   43  A    between atoms: _102  and  _104
REMARK   44  A    between atoms: _104  and  _105
REMARK   45  A    between atoms: _104  and  _107
REMARK   46  A    between atoms: _107  and  _108
REMARK   47  A    between atoms: _111  and  _113
REMARK   48  A    between atoms: _113  and  _114
REMARK   49  A    between atoms: _113  and  _116
REMARK   50  A    between atoms: _116  and  _117
REMARK   51  A    between atoms: _120  and  _122
REMARK   52  A    between atoms: _122  and  _123
REMARK   53  A    between atoms: _122  and  _125
REMARK   54  A    between atoms: _125  and  _126
REMARK   55  A    between atoms: _131  and  _133
REMARK   56  A    between atoms: _133  and  _134
REMARK   57  A    between atoms: _133  and  _136
REMARK   58  A    between atoms: _136  and  _137
REMARK   59  A    between atoms: _137  and  _138
REMARK   60  A    between atoms: _143  and  _145
REMARK   61  A    between atoms: _145  and  _146
REMARK   62  A    between atoms: _145  and  _148
REMARK   63  A    between atoms: _148  and  _149
REMARK   64  A    between atoms: _149  and  _150
REMARK   65  A    between atoms: _150  and  _151
REMARK   66  A    between atoms: _151  and  _152
REMARK   67  A    between atoms: _156  and  _158
REMARK   68  A    between atoms: _158  and  _159
REMARK   69  A    between atoms: _158  and  _161
REMARK   70  A    between atoms: _164  and  _166
REMARK   71  A    between atoms: _166  and  _167
REMARK   72  A    between atoms: _166  and  _169
REMARK   73  A    between atoms: _169  and  _170
REMARK   74  A    between atoms: _170  and  _171
REMARK   75  A    between atoms: _171  and  _172
REMARK   76  A    between atoms: _172  and  _173
REMARK   77  A    between atoms: _177  and  _179
REMARK   78  A    between atoms: _179  and  _180
REMARK   79  A    between atoms: _179  and  _182
REMARK   80  A    between atoms: _182  and  _183
REMARK   81  A    between atoms: _186  and  _188
REMARK   82  A    between atoms: _188  and  _189
REMARK   83  A    between atoms: _188  and  _191
REMARK   84  A    between atoms: _191  and  _192
REMARK   85  A    between atoms: _192  and  _193
REMARK   86  A    between atoms: _196  and  _198
REMARK   87  A    between atoms: _198  and  _199
REMARK   88  A    between atoms: _198  and  _201
REMARK   89  A    between atoms: _201  and  _202
REMARK   90  A    between atoms: _202  and  _203
REMARK   91  A    between atoms: _203  and  _204
REMARK   92  A    between atoms: _204  and  _205
REMARK   93  A    between atoms: _209  and  _211
REMARK   94  A    between atoms: _211  and  _212
REMARK   95  A    between atoms: _214  and  _216
REMARK   96  A    between atoms: _216  and  _217
REMARK   97  A    between atoms: _216  and  _219
REMARK   98  A    between atoms: _219  and  _220
REMARK   99  A    between atoms: _223  and  _225
REMARK  100  A    between atoms: _225  and  _226
REMARK  101  A    between atoms: _228  and  _230
REMARK  102  A    between atoms: _230  and  _231
REMARK  103  A    between atoms: _230  and  _233
REMARK  104  A    between atoms: _233  and  _234
REMARK  105  A    between atoms: _234  and  _235
REMARK  106  A    between atoms: _235  and  _236
REMARK  107  A    between atoms: _236  and  _237
REMARK  108  A    between atoms: _241  and  _243
REMARK  109  A    between atoms: _243  and  _244
REMARK  110  A    between atoms: _243  and  _246
REMARK  111  A    between atoms: _246  and  _247
REMARK  112  A    between atoms: _250  and  _252
REMARK  113  A    between atoms: _252  and  _253
REMARK  114  A    between atoms: _252  and  _255
REMARK  115  A    between atoms: _255  and  _256
REMARK  116  A    between atoms: _262  and  _264
REMARK  117  A    between atoms: _264  and  _265
REMARK  118  A    between atoms: _264  and  _267
REMARK  119  A    between atoms: _267  and  _268
REMARK  120  A    between atoms: _271  and  _273
REMARK  121  A    between atoms: _273  and  _274
REMARK  122  A    between atoms: _273  and  _276
REMARK  123  A    between atoms: _276  and  _277
REMARK  124  A    between atoms: _277  and  _278
REMARK  125  A    between atoms: _278  and  _279
REMARK  126  A    between atoms: _279  and  _280
REMARK  127  A    between atoms: _284  and  _286
REMARK  128  A    between atoms: _286  and  _287
REMARK  129  A    between atoms: _286  and  _289
REMARK  130  A    between atoms: _289  and  _290
REMARK  131  A    between atoms: _293  and  _295
REMARK  132  A    between atoms: _295  and  _296
REMARK  133  A    between atoms: _295  and  _298
REMARK  134  A    between atoms: _301  and  _303
REMARK  135  A    between atoms: _303  and  _304
REMARK  136  A    between atoms: _308  and  _309
REMARK  137  A    between atoms: _314  and  _316
REMARK  138  A    between atoms: _316  and  _317
REMARK  139  A    between atoms: _316  and  _319
REMARK  140  A    between atoms: _319  and  _320
REMARK  141  A    between atoms: _322  and  _324
REMARK  142  A    between atoms: _324  and  _325
REMARK  143  A    between atoms: _324  and  _327
REMARK  144  A    between atoms: _327  and  _328
REMARK  145  A    between atoms: _331  and  _333
REMARK  146  A    between atoms: _333  and  _334
REMARK  147  A    between atoms: _333  and  _336
REMARK  148  A    between atoms: _336  and  _337
REMARK  149  A    between atoms: _340  and  _342
REMARK  150  A    between atoms: _342  and  _343
REMARK  151  A    between atoms: _342  and  _345
REMARK  152  A    between atoms: _348  and  _350
REMARK  153  A    between atoms: _350  and  _351
REMARK  154  A    between atoms: _350  and  _353
REMARK  155  A    between atoms: _356  and  _358
REMARK  156  A    between atoms: _358  and  _359
REMARK  157  A    between atoms: _358  and  _361
REMARK  158  A    between atoms: _361  and  _362
REMARK  159  A    between atoms: _362  and  _363
REMARK  160  A    between atoms: _366  and  _368
REMARK  161  A    between atoms: _368  and  _369
REMARK  162  A    between atoms: _368  and  _371
REMARK  163  A    between atoms: _373  and  _375
REMARK  164  A    between atoms: _375  and  _376
REMARK  165  A    between atoms: _375  and  _378
REMARK  166  A    between atoms: _381  and  _383
REMARK  167  A    between atoms: _383  and  _384
REMARK  168  A    between atoms: _383  and  _386
REMARK  169  A    between atoms: _389  and  _391
REMARK  170  A    between atoms: _391  and  _392
REMARK  171  A    between atoms: _395  and  _397
REMARK  172  A    between atoms: _397  and  _398
REMARK  173  A    between atoms: _401  and  _403
REMARK  174  A    between atoms: _403  and  _404
REMARK  175  A    between atoms: _403  and  _406
REMARK  176  A    between atoms: _406  and  _407
REMARK  177  A    between atoms: _410  and  _412
REMARK  178  A    between atoms: _412  and  _413
REMARK  179  A    between atoms: _412  and  _415
REMARK  180  A    between atoms: _415  and  _416
REMARK  181  A    between atoms: _416  and  _417
REMARK  182  A    between atoms: _422  and  _424
REMARK  183  A    between atoms: _424  and  _425
REMARK  184  A    between atoms: _424  and  _427
REMARK  185  A    between atoms: _430  and  _432
REMARK  186  A    between atoms: _432  and  _433
REMARK  187  A    between atoms: _432  and  _435
REMARK  188  A    between atoms: _435  and  _436
REMARK  189  A    between atoms: _436  and  _437
REMARK  190  A    between atoms: _437  and  _438
REMARK  191  A    between atoms: _447  and  _449
REMARK  192  A    between atoms: _449  and  _450
REMARK  193  A    between atoms: _449  and  _452
REMARK  194  A    between atoms: _452  and  _453
REMARK  195  A    between atoms: _456  and  _458
REMARK  196  A    between atoms: _458  and  _459
REMARK  197  A    between atoms: _462  and  _464
REMARK  198  A    between atoms: _464  and  _465
REMARK  199  A    between atoms: _464  and  _467
REMARK                            x       y       z     vdW  Elec       q    Type
REMARK                         _______ _______ _______ _____ _____    ______ ____
ROOT
ATOM      1  O   HOH     1     -13.523  10.724   8.616  0.00  0.00    +0.000 OA
ENDROOT
TORSDOF 0
REMARK  Name = ../refined-set-2016/4ozj/4ozj_pocket.pdb
REMARK  199 active torsions:
REMARK  status: ('A' for Active; 'I' for Inactive)
REMARK    1  A    between atoms: _1  and  _3
REMARK    2  A    between atoms: _3  and  _4
REMARK    3  A    between atoms: _3  and  _6
REMARK    4  A    between atoms: _6  and  _7
REMARK    5  A    between atoms: _7  and  _8
REMARK    6  A    between atoms: _10  and  _12
REMARK    7  A    between atoms: _12  and  _13
REMARK    8  A    between atoms: _16  and  _18
REMARK    9  A    between atoms: _18  and  _19
REMARK   10  A    between atoms: _18  and  _21
REMARK   11  A    between atoms: _21  and  _22
REMARK   12  A    between atoms: _25  and  _27
REMARK   13  A    between atoms: _27  and  _28
REMARK   14  A    between atoms: _27  and  _30
REMARK   15  A    between atoms: _30  and  _31
REMARK   16  A    between atoms: _34  and  _36
REMARK   17  A    between atoms: _36  and  _37
REMARK   18  A    between atoms: _36  and  _39
REMARK   19  A    between atoms: _39  and  _40
REMARK   20  A    between atoms: _40  and  _41
REMARK   21  A    between atoms: _41  and  _42
REMARK   22  A    between atoms: _51  and  _53
REMARK   23  A    between atoms: _53  and  _54
REMARK   24  A    between atoms: _53  and  _56
REMARK   25  A    between atoms: _59  and  _61
REMARK   26  A    between atoms: _61  and  _62
REMARK   27  A    between atoms: _61  and  _64
REMARK   28  A    between atoms: _64  and  _65
REMARK   29  A    between atoms: _67  and  _69
REMARK   30  A    between atoms: _69  and  _70
REMARK   31  A    between atoms: _72  and  _74
REMARK   32  A    between atoms: _74  and  _75
REMARK   33  A    between atoms: _74  and  _77
REMARK   34  A    between atoms: _77  and  _78
REMARK   35  A    between atoms: _78  and  _79
REMARK   36  A    between atoms: _79  and  _80
REMARK   37  A    between atoms: _89  and  _91
REMARK   38  A    between atoms: _91  and  _92
REMARK   39  A    between atoms: _94  and  _96
REMARK   40  A    between atoms: _96  and  _97
REMARK   41  A    between atoms: _96  and  _99
REMARK   42  A    between atoms: _99  and  _100
REMARK   43  A    between atoms: _102  and  _104
REMARK   44  A    between atoms: _104  and  _105
REMARK   45  A    between atoms: _104  and  _107
REMARK   46  A    between atoms: _107  and  _108
REMARK   47  A    between atoms: _111  and  _113
REMARK   48  A    between atoms: _113  and  _114
REMARK   49  A    between atoms: _113  and  _116
REMARK   50  A    between atoms: _116  and  _117
REMARK   51  A    between atoms: _120  and  _122
REMARK   52  A    between atoms: _122  and  _123
REMARK   53  A    between atoms: _122  and  _125
REMARK   54  A    between atoms: _125  and  _126
REMARK   55  A    between atoms: _131  and  _133
REMARK   56  A    between atoms: _133  and  _134
REMARK   57  A    between atoms: _133  and  _136
REMARK   58  A    between atoms: _136  and  _137
REMARK   59  A    between atoms: _137  and  _138
REMARK   60  A    between atoms: _143  and  _145
REMARK   61  A    between atoms: _145  and  _146
REMARK   62  A    between atoms: _145  and  _148
REMARK   63  A    between atoms: _148  and  _149
REMARK   64  A    between atoms: _149  and  _150
REMARK   65  A    between atoms: _150  and  _151
REMARK   66  A    between atoms: _151  and  _152
REMARK   67  A    between atoms: _156  and  _158
REMARK   68  A    between atoms: _158  and  _159
REMARK   69  A    between atoms: _158  and  _161
REMARK   70  A    between atoms: _164  and  _166
REMARK   71  A    between atoms: _166  and  _167
REMARK   72  A    between atoms: _166  and  _169
REMARK   73  A    between atoms: _169  and  _170
REMARK   74  A    between atoms: _170  and  _171
REMARK   75  A    between atoms: _171  and  _172
REMARK   76  A    between atoms: _172  and  _173
REMARK   77  A    between atoms: _177  and  _179
REMARK   78  A    between atoms: _179  and  _180
REMARK   79  A    between atoms: _179  and  _182
REMARK   80  A    between atoms: _182  and  _183
REMARK   81  A    between atoms: _186  and  _188
REMARK   82  A    between atoms: _188  and  _189
REMARK   83  A    between atoms: _188  and  _191
REMARK   84  A    between atoms: _191  and  _192
REMARK   85  A    between atoms: _192  and  _193
REMARK   86  A    between atoms: _196  and  _198
REMARK   87  A    between atoms: _198  and  _199
REMARK   88  A    between atoms: _198  and  _201
REMARK   89  A    between atoms: _201  and  _202
REMARK   90  A    between atoms: _202  and  _203
REMARK   91  A    between atoms: _203  and  _204
REMARK   92  A    between atoms: _204  and  _205
REMARK   93  A    between atoms: _209  and  _211
REMARK   94  A    between atoms: _211  and  _212
REMARK   95  A    between atoms: _214  and  _216
REMARK   96  A    between atoms: _216  and  _217
REMARK   97  A    between atoms: _216  and  _219
REMARK   98  A    between atoms: _219  and  _220
REMARK   99  A    between atoms: _223  and  _225
REMARK  100  A    between atoms: _225  and  _226
REMARK  101  A    between atoms: _228  and  _230
REMARK  102  A    between atoms: _230  and  _231
REMARK  103  A    between atoms: _230  and  _233
REMARK  104  A    between atoms: _233  and  _234
REMARK  105  A    between atoms: _234  and  _235
REMARK  106  A    between atoms: _235  and  _236
REMARK  107  A    between atoms: _236  and  _237
REMARK  108  A    between atoms: _241  and  _243
REMARK  109  A    between atoms: _243  and  _244
REMARK  110  A    between atoms: _243  and  _246
REMARK  111  A    between atoms: _246  and  _247
REMARK  112  A    between atoms: _250  and  _252
REMARK  113  A    between atoms: _252  and  _253
REMARK  114  A    between atoms: _252  and  _255
REMARK  115  A    between atoms: _255  and  _256
REMARK  116  A    between atoms: _262  and  _264
REMARK  117  A    between atoms: _264  and  _265
REMARK  118  A    between atoms: _264  and  _267
REMARK  119  A    between atoms: _267  and  _268
REMARK  120  A    between atoms: _271  and  _273
REMARK  121  A    between atoms: _273  and  _274
REMARK  122  A    between atoms: _273  and  _276
REMARK  123  A    between atoms: _276  and  _277
REMARK  124  A    between atoms: _277  and  _278
REMARK  125  A    between atoms: _278  and  _279
REMARK  126  A    between atoms: _279  and  _280
REMARK  127  A    between atoms: _284  and  _286
REMARK  128  A    between atoms: _286  and  _287
REMARK  129  A    between atoms: _286  and  _289
REMARK  130  A    between atoms: _289  and  _290
REMARK  131  A    between atoms: _293  and  _295
REMARK  132  A    between atoms: _295  and  _296
REMARK  133  A    between atoms: _295  and  _298
REMARK  134  A    between atoms: _301  and  _303
REMARK  135  A    between atoms: _303  and  _304
REMARK  136  A    between atoms: _308  and  _309
REMARK  137  A    between atoms: _314  and  _316
REMARK  138  A    between atoms: _316  and  _317
REMARK  139  A    between atoms: _316  and  _319
REMARK  140  A    between atoms: _319  and  _320
REMARK  141  A    between atoms: _322  and  _324
REMARK  142  A    between atoms: _324  and  _325
REMARK  143  A    between atoms: _324  and  _327
REMARK  144  A    between atoms: _327  and  _328
REMARK  145  A    between atoms: _331  and  _333
REMARK  146  A    between atoms: _333  and  _334
REMARK  147  A    between atoms: _333  and  _336
REMARK  148  A    between atoms: _336  and  _337
REMARK  149  A    between atoms: _340  and  _342
REMARK  150  A    between atoms: _342  and  _343
REMARK  151  A    between atoms: _342  and  _345
REMARK  152  A    between atoms: _348  and  _350
REMARK  153  A    between atoms: _350  and  _351
REMARK  154  A    between atoms: _350  and  _353
REMARK  155  A    between atoms: _356  and  _358
REMARK  156  A    between atoms: _358  and  _359
REMARK  157  A    between atoms: _358  and  _361
REMARK  158  A    between atoms: _361  and  _362
REMARK  159  A    between atoms: _362  and  _363
REMARK  160  A    between atoms: _366  and  _368
REMARK  161  A    between atoms: _368  and  _369
REMARK  162  A    between atoms: _368  and  _371
REMARK  163  A    between atoms: _373  and  _375
REMARK  164  A    between atoms: _375  and  _376
REMARK  165  A    between atoms: _375  and  _378
REMARK  166  A    between atoms: _381  and  _383
REMARK  167  A    between atoms: _383  and  _384
REMARK  168  A    between atoms: _383  and  _386
REMARK  169  A    between atoms: _389  and  _391
REMARK  170  A    between atoms: _391  and  _392
REMARK  171  A    between atoms: _395  and  _397
REMARK  172  A    between atoms: _397  and  _398
REMARK  173  A    between atoms: _401  and  _403
REMARK  174  A    between atoms: _403  and  _404
REMARK  175  A    between atoms: _403  and  _406
REMARK  176  A    between atoms: _406  and  _407
REMARK  177  A    between atoms: _410  and  _412
REMARK  178  A    between atoms: _412  and  _413
REMARK  179  A    between atoms: _412  and  _415
REMARK  180  A    between atoms: _415  and  _416
REMARK  181  A    between atoms: _416  and  _417
REMARK  182  A    between atoms: _422  and  _424
REMARK  183  A    between atoms: _424  and  _425
REMARK  184  A    between atoms: _424  and  _427
REMARK  185  A    between atoms: _430  and  _432
REMARK  186  A    between atoms: _432  and  _433
REMARK  187  A    between atoms: _432  and  _435
REMARK  188  A    between atoms: _435  and  _436
REMARK  189  A    between atoms: _436  and  _437
REMARK  190  A    between atoms: _437  and  _438
REMARK  191  A    between atoms: _447  and  _449
REMARK  192  A    between atoms: _449  and  _450
REMARK  193  A    between atoms: _449  and  _452
REMARK  194  A    between atoms: _452  and  _453
REMARK  195  A    between atoms: _456  and  _458
REMARK  196  A    between atoms: _458  and  _459
REMARK  197  A    between atoms: _462  and  _464
REMARK  198  A    between atoms: _464  and  _465
REMARK  199  A    between atoms: _464  and  _467
REMARK                            x       y       z     vdW  Elec       q    Type
REMARK                         _______ _______ _______ _____ _____    ______ ____
ROOT
ATOM      1  O   HOH     1     -16.799   1.727   7.679  0.00  0.00    +0.000 OA
ENDROOT
TORSDOF 0
REMARK  Name = ../refined-set-2016/4ozj/4ozj_pocket.pdb
REMARK  199 active torsions:
REMARK  status: ('A' for Active; 'I' for Inactive)
REMARK    1  A    between atoms: _1  and  _3
REMARK    2  A    between atoms: _3  and  _4
REMARK    3  A    between atoms: _3  and  _6
REMARK    4  A    between atoms: _6  and  _7
REMARK    5  A    between atoms: _7  and  _8
REMARK    6  A    between atoms: _10  and  _12
REMARK    7  A    between atoms: _12  and  _13
REMARK    8  A    between atoms: _16  and  _18
REMARK    9  A    between atoms: _18  and  _19
REMARK   10  A    between atoms: _18  and  _21
REMARK   11  A    between atoms: _21  and  _22
REMARK   12  A    between atoms: _25  and  _27
REMARK   13  A    between atoms: _27  and  _28
REMARK   14  A    between atoms: _27  and  _30
REMARK   15  A    between atoms: _30  and  _31
REMARK   16  A    between atoms: _34  and  _36
REMARK   17  A    between atoms: _36  and  _37
REMARK   18  A    between atoms: _36  and  _39
REMARK   19  A    between atoms: _39  and  _40
REMARK   20  A    between atoms: _40  and  _41
REMARK   21  A    between atoms: _41  and  _42
REMARK   22  A    between atoms: _51  and  _53
REMARK   23  A    between atoms: _53  and  _54
REMARK   24  A    between atoms: _53  and  _56
REMARK   25  A    between atoms: _59  and  _61
REMARK   26  A    between atoms: _61  and  _62
REMARK   27  A    between atoms: _61  and  _64
REMARK   28  A    between atoms: _64  and  _65
REMARK   29  A    between atoms: _67  and  _69
REMARK   30  A    between atoms: _69  and  _70
REMARK   31  A    between atoms: _72  and  _74
REMARK   32  A    between atoms: _74  and  _75
REMARK   33  A    between atoms: _74  and  _77
REMARK   34  A    between atoms: _77  and  _78
REMARK   35  A    between atoms: _78  and  _79
REMARK   36  A    between atoms: _79  and  _80
REMARK   37  A    between atoms: _89  and  _91
REMARK   38  A    between atoms: _91  and  _92
REMARK   39  A    between atoms: _94  and  _96
REMARK   40  A    between atoms: _96  and  _97
REMARK   41  A    between atoms: _96  and  _99
REMARK   42  A    between atoms: _99  and  _100
REMARK   43  A    between atoms: _102  and  _104
REMARK   44  A    between atoms: _104  and  _105
REMARK   45  A    between atoms: _104  and  _107
REMARK   46  A    between atoms: _107  and  _108
REMARK   47  A    between atoms: _111  and  _113
REMARK   48  A    between atoms: _113  and  _114
REMARK   49  A    between atoms: _113  and  _116
REMARK   50  A    between atoms: _116  and  _117
REMARK   51  A    between atoms: _120  and  _122
REMARK   52  A    between atoms: _122  and  _123
REMARK   53  A    between atoms: _122  and  _125
REMARK   54  A    between atoms: _125  and  _126
REMARK   55  A    between atoms: _131  and  _133
REMARK   56  A    between atoms: _133  and  _134
REMARK   57  A    between atoms: _133  and  _136
REMARK   58  A    between atoms: _136  and  _137
REMARK   59  A    between atoms: _137  and  _138
REMARK   60  A    between atoms: _143  and  _145
REMARK   61  A    between atoms: _145  and  _146
REMARK   62  A    between atoms: _145  and  _148
REMARK   63  A    between atoms: _148  and  _149
REMARK   64  A    between atoms: _149  and  _150
REMARK   65  A    between atoms: _150  and  _151
REMARK   66  A    between atoms: _151  and  _152
REMARK   67  A    between atoms: _156  and  _158
REMARK   68  A    between atoms: _158  and  _159
REMARK   69  A    between atoms: _158  and  _161
REMARK   70  A    between atoms: _164  and  _166
REMARK   71  A    between atoms: _166  and  _167
REMARK   72  A    between atoms: _166  and  _169
REMARK   73  A    between atoms: _169  and  _170
REMARK   74  A    between atoms: _170  and  _171
REMARK   75  A    between atoms: _171  and  _172
REMARK   76  A    between atoms: _172  and  _173
REMARK   77  A    between atoms: _177  and  _179
REMARK   78  A    between atoms: _179  and  _180
REMARK   79  A    between atoms: _179  and  _182
REMARK   80  A    between atoms: _182  and  _183
REMARK   81  A    between atoms: _186  and  _188
REMARK   82  A    between atoms: _188  and  _189
REMARK   83  A    between atoms: _188  and  _191
REMARK   84  A    between atoms: _191  and  _192
REMARK   85  A    between atoms: _192  and  _193
REMARK   86  A    between atoms: _196  and  _198
REMARK   87  A    between atoms: _198  and  _199
REMARK   88  A    between atoms: _198  and  _201
REMARK   89  A    between atoms: _201  and  _202
REMARK   90  A    between atoms: _202  and  _203
REMARK   91  A    between atoms: _203  and  _204
REMARK   92  A    between atoms: _204  and  _205
REMARK   93  A    between atoms: _209  and  _211
REMARK   94  A    between atoms: _211  and  _212
REMARK   95  A    between atoms: _214  and  _216
REMARK   96  A    between atoms: _216  and  _217
REMARK   97  A    between atoms: _216  and  _219
REMARK   98  A    between atoms: _219  and  _220
REMARK   99  A    between atoms: _223  and  _225
REMARK  100  A    between atoms: _225  and  _226
REMARK  101  A    between atoms: _228  and  _230
REMARK  102  A    between atoms: _230  and  _231
REMARK  103  A    between atoms: _230  and  _233
REMARK  104  A    between atoms: _233  and  _234
REMARK  105  A    between atoms: _234  and  _235
REMARK  106  A    between atoms: _235  and  _236
REMARK  107  A    between atoms: _236  and  _237
REMARK  108  A    between atoms: _241  and  _243
REMARK  109  A    between atoms: _243  and  _244
REMARK  110  A    between atoms: _243  and  _246
REMARK  111  A    between atoms: _246  and  _247
REMARK  112  A    between atoms: _250  and  _252
REMARK  113  A    between atoms: _252  and  _253
REMARK  114  A    between atoms: _252  and  _255
REMARK  115  A    between atoms: _255  and  _256
REMARK  116  A    between atoms: _262  and  _264
REMARK  117  A    between atoms: _264  and  _265
REMARK  118  A    between atoms: _264  and  _267
REMARK  119  A    between atoms: _267  and  _268
REMARK  120  A    between atoms: _271  and  _273
REMARK  121  A    between atoms: _273  and  _274
REMARK  122  A    between atoms: _273  and  _276
REMARK  123  A    between atoms: _276  and  _277
REMARK  124  A    between atoms: _277  and  _278
REMARK  125  A    between atoms: _278  and  _279
REMARK  126  A    between atoms: _279  and  _280
REMARK  127  A    between atoms: _284  and  _286
REMARK  128  A    between atoms: _286  and  _287
REMARK  129  A    between atoms: _286  and  _289
REMARK  130  A    between atoms: _289  and  _290
REMARK  131  A    between atoms: _293  and  _295
REMARK  132  A    between atoms: _295  and  _296
REMARK  133  A    between atoms: _295  and  _298
REMARK  134  A    between atoms: _301  and  _303
REMARK  135  A    between atoms: _303  and  _304
REMARK  136  A    between atoms: _308  and  _309
REMARK  137  A    between atoms: _314  and  _316
REMARK  138  A    between atoms: _316  and  _317
REMARK  139  A    between atoms: _316  and  _319
REMARK  140  A    between atoms: _319  and  _320
REMARK  141  A    between atoms: _322  and  _324
REMARK  142  A    between atoms: _324  and  _325
REMARK  143  A    between atoms: _324  and  _327
REMARK  144  A    between atoms: _327  and  _328
REMARK  145  A    between atoms: _331  and  _333
REMARK  146  A    between atoms: _333  and  _334
REMARK  147  A    between atoms: _333  and  _336
REMARK  148  A    between atoms: _336  and  _337
REMARK  149  A    between atoms: _340  and  _342
REMARK  150  A    between atoms: _342  and  _343
REMARK  151  A    between atoms: _342  and  _345
REMARK  152  A    between atoms: _348  and  _350
REMARK  153  A    between atoms: _350  and  _351
REMARK  154  A    between atoms: _350  and  _353
REMARK  155  A    between atoms: _356  and  _358
REMARK  156  A    between atoms: _358  and  _359
REMARK  157  A    between atoms: _358  and  _361
REMARK  158  A    between atoms: _361  and  _362
REMARK  159  A    between atoms: _362  and  _363
REMARK  160  A    between atoms: _366  and  _368
REMARK  161  A    between atoms: _368  and  _369
REMARK  162  A    between atoms: _368  and  _371
REMARK  163  A    between atoms: _373  and  _375
REMARK  164  A    between atoms: _375  and  _376
REMARK  165  A    between atoms: _375  and  _378
REMARK  166  A    between atoms: _381  and  _383
REMARK  167  A    between atoms: _383  and  _384
REMARK  168  A    between atoms: _383  and  _386
REMARK  169  A    between atoms: _389  and  _391
REMARK  170  A    between atoms: _391  and  _392
REMARK  171  A    between atoms: _395  and  _397
REMARK  172  A    between atoms: _397  and  _398
REMARK  173  A    between atoms: _401  and  _403
REMARK  174  A    between atoms: _403  and  _404
REMARK  175  A    between atoms: _403  and  _406
REMARK  176  A    between atoms: _406  and  _407
REMARK  177  A    between atoms: _410  and  _412
REMARK  178  A    between atoms: _412  and  _413
REMARK  179  A    between atoms: _412  and  _415
REMARK  180  A    between atoms: _415  and  _416
REMARK  181  A    between atoms: _416  and  _417
REMARK  182  A    between atoms: _422  and  _424
REMARK  183  A    between atoms: _424  and  _425
REMARK  184  A    between atoms: _424  and  _427
REMARK  185  A    between atoms: _430  and  _432
REMARK  186  A    between atoms: _432  and  _433
REMARK  187  A    between atoms: _432  and  _435
REMARK  188  A    between atoms: _435  and  _436
REMARK  189  A    between atoms: _436  and  _437
REMARK  190  A    between atoms: _437  and  _438
REMARK  191  A    between atoms: _447  and  _449
REMARK  192  A    between atoms: _449  and  _450
REMARK  193  A    between atoms: _449  and  _452
REMARK  194  A    between atoms: _452  and  _453
REMARK  195  A    between atoms: _456  and  _458
REMARK  196  A    between atoms: _458  and  _459
REMARK  197  A    between atoms: _462  and  _464
REMARK  198  A    between atoms: _464  and  _465
REMARK  199  A    between atoms: _464  and  _467
REMARK                            x       y       z     vdW  Elec       q    Type
REMARK                         _______ _______ _______ _____ _____    ______ ____
ROOT
ATOM      1  O   HOH     1     -20.609  -4.048   9.405  0.00  0.00    +0.000 OA
ENDROOT
TORSDOF 0
REMARK  Name = ../refined-set-2016/4ozj/4ozj_pocket.pdb
REMARK  199 active torsions:
REMARK  status: ('A' for Active; 'I' for Inactive)
REMARK    1  A    between atoms: _1  and  _3
REMARK    2  A    between atoms: _3  and  _4
REMARK    3  A    between atoms: _3  and  _6
REMARK    4  A    between atoms: _6  and  _7
REMARK    5  A    between atoms: _7  and  _8
REMARK    6  A    between atoms: _10  and  _12
REMARK    7  A    between atoms: _12  and  _13
REMARK    8  A    between atoms: _16  and  _18
REMARK    9  A    between atoms: _18  and  _19
REMARK   10  A    between atoms: _18  and  _21
REMARK   11  A    between atoms: _21  and  _22
REMARK   12  A    between atoms: _25  and  _27
REMARK   13  A    between atoms: _27  and  _28
REMARK   14  A    between atoms: _27  and  _30
REMARK   15  A    between atoms: _30  and  _31
REMARK   16  A    between atoms: _34  and  _36
REMARK   17  A    between atoms: _36  and  _37
REMARK   18  A    between atoms: _36  and  _39
REMARK   19  A    between atoms: _39  and  _40
REMARK   20  A    between atoms: _40  and  _41
REMARK   21  A    between atoms: _41  and  _42
REMARK   22  A    between atoms: _51  and  _53
REMARK   23  A    between atoms: _53  and  _54
REMARK   24  A    between atoms: _53  and  _56
REMARK   25  A    between atoms: _59  and  _61
REMARK   26  A    between atoms: _61  and  _62
REMARK   27  A    between atoms: _61  and  _64
REMARK   28  A    between atoms: _64  and  _65
REMARK   29  A    between atoms: _67  and  _69
REMARK   30  A    between atoms: _69  and  _70
REMARK   31  A    between atoms: _72  and  _74
REMARK   32  A    between atoms: _74  and  _75
REMARK   33  A    between atoms: _74  and  _77
REMARK   34  A    between atoms: _77  and  _78
REMARK   35  A    between atoms: _78  and  _79
REMARK   36  A    between atoms: _79  and  _80
REMARK   37  A    between atoms: _89  and  _91
REMARK   38  A    between atoms: _91  and  _92
REMARK   39  A    between atoms: _94  and  _96
REMARK   40  A    between atoms: _96  and  _97
REMARK   41  A    between atoms: _96  and  _99
REMARK   42  A    between atoms: _99  and  _100
REMARK   43  A    between atoms: _102  and  _104
REMARK   44  A    between atoms: _104  and  _105
REMARK   45  A    between atoms: _104  and  _107
REMARK   46  A    between atoms: _107  and  _108
REMARK   47  A    between atoms: _111  and  _113
REMARK   48  A    between atoms: _113  and  _114
REMARK   49  A    between atoms: _113  and  _116
REMARK   50  A    between atoms: _116  and  _117
REMARK   51  A    between atoms: _120  and  _122
REMARK   52  A    between atoms: _122  and  _123
REMARK   53  A    between atoms: _122  and  _125
REMARK   54  A    between atoms: _125  and  _126
REMARK   55  A    between atoms: _131  and  _133
REMARK   56  A    between atoms: _133  and  _134
REMARK   57  A    between atoms: _133  and  _136
REMARK   58  A    between atoms: _136  and  _137
REMARK   59  A    between atoms: _137  and  _138
REMARK   60  A    between atoms: _143  and  _145
REMARK   61  A    between atoms: _145  and  _146
REMARK   62  A    between atoms: _145  and  _148
REMARK   63  A    between atoms: _148  and  _149
REMARK   64  A    between atoms: _149  and  _150
REMARK   65  A    between atoms: _150  and  _151
REMARK   66  A    between atoms: _151  and  _152
REMARK   67  A    between atoms: _156  and  _158
REMARK   68  A    between atoms: _158  and  _159
REMARK   69  A    between atoms: _158  and  _161
REMARK   70  A    between atoms: _164  and  _166
REMARK   71  A    between atoms: _166  and  _167
REMARK   72  A    between atoms: _166  and  _169
REMARK   73  A    between atoms: _169  and  _170
REMARK   74  A    between atoms: _170  and  _171
REMARK   75  A    between atoms: _171  and  _172
REMARK   76  A    between atoms: _172  and  _173
REMARK   77  A    between atoms: _177  and  _179
REMARK   78  A    between atoms: _179  and  _180
REMARK   79  A    between atoms: _179  and  _182
REMARK   80  A    between atoms: _182  and  _183
REMARK   81  A    between atoms: _186  and  _188
REMARK   82  A    between atoms: _188  and  _189
REMARK   83  A    between atoms: _188  and  _191
REMARK   84  A    between atoms: _191  and  _192
REMARK   85  A    between atoms: _192  and  _193
REMARK   86  A    between atoms: _196  and  _198
REMARK   87  A    between atoms: _198  and  _199
REMARK   88  A    between atoms: _198  and  _201
REMARK   89  A    between atoms: _201  and  _202
REMARK   90  A    between atoms: _202  and  _203
REMARK   91  A    between atoms: _203  and  _204
REMARK   92  A    between atoms: _204  and  _205
REMARK   93  A    between atoms: _209  and  _211
REMARK   94  A    between atoms: _211  and  _212
REMARK   95  A    between atoms: _214  and  _216
REMARK   96  A    between atoms: _216  and  _217
REMARK   97  A    between atoms: _216  and  _219
REMARK   98  A    between atoms: _219  and  _220
REMARK   99  A    between atoms: _223  and  _225
REMARK  100  A    between atoms: _225  and  _226
REMARK  101  A    between atoms: _228  and  _230
REMARK  102  A    between atoms: _230  and  _231
REMARK  103  A    between atoms: _230  and  _233
REMARK  104  A    between atoms: _233  and  _234
REMARK  105  A    between atoms: _234  and  _235
REMARK  106  A    between atoms: _235  and  _236
REMARK  107  A    between atoms: _236  and  _237
REMARK  108  A    between atoms: _241  and  _243
REMARK  109  A    between atoms: _243  and  _244
REMARK  110  A    between atoms: _243  and  _246
REMARK  111  A    between atoms: _246  and  _247
REMARK  112  A    between atoms: _250  and  _252
REMARK  113  A    between atoms: _252  and  _253
REMARK  114  A    between atoms: _252  and  _255
REMARK  115  A    between atoms: _255  and  _256
REMARK  116  A    between atoms: _262  and  _264
REMARK  117  A    between atoms: _264  and  _265
REMARK  118  A    between atoms: _264  and  _267
REMARK  119  A    between atoms: _267  and  _268
REMARK  120  A    between atoms: _271  and  _273
REMARK  121  A    between atoms: _273  and  _274
REMARK  122  A    between atoms: _273  and  _276
REMARK  123  A    between atoms: _276  and  _277
REMARK  124  A    between atoms: _277  and  _278
REMARK  125  A    between atoms: _278  and  _279
REMARK  126  A    between atoms: _279  and  _280
REMARK  127  A    between atoms: _284  and  _286
REMARK  128  A    between atoms: _286  and  _287
REMARK  129  A    between atoms: _286  and  _289
REMARK  130  A    between atoms: _289  and  _290
REMARK  131  A    between atoms: _293  and  _295
REMARK  132  A    between atoms: _295  and  _296
REMARK  133  A    between atoms: _295  and  _298
REMARK  134  A    between atoms: _301  and  _303
REMARK  135  A    between atoms: _303  and  _304
REMARK  136  A    between atoms: _308  and  _309
REMARK  137  A    between atoms: _314  and  _316
REMARK  138  A    between atoms: _316  and  _317
REMARK  139  A    between atoms: _316  and  _319
REMARK  140  A    between atoms: _319  and  _320
REMARK  141  A    between atoms: _322  and  _324
REMARK  142  A    between atoms: _324  and  _325
REMARK  143  A    between atoms: _324  and  _327
REMARK  144  A    between atoms: _327  and  _328
REMARK  145  A    between atoms: _331  and  _333
REMARK  146  A    between atoms: _333  and  _334
REMARK  147  A    between atoms: _333  and  _336
REMARK  148  A    between atoms: _336  and  _337
REMARK  149  A    between atoms: _340  and  _342
REMARK  150  A    between atoms: _342  and  _343
REMARK  151  A    between atoms: _342  and  _345
REMARK  152  A    between atoms: _348  and  _350
REMARK  153  A    between atoms: _350  and  _351
REMARK  154  A    between atoms: _350  and  _353
REMARK  155  A    between atoms: _356  and  _358
REMARK  156  A    between atoms: _358  and  _359
REMARK  157  A    between atoms: _358  and  _361
REMARK  158  A    between atoms: _361  and  _362
REMARK  159  A    between atoms: _362  and  _363
REMARK  160  A    between atoms: _366  and  _368
REMARK  161  A    between atoms: _368  and  _369
REMARK  162  A    between atoms: _368  and  _371
REMARK  163  A    between atoms: _373  and  _375
REMARK  164  A    between atoms: _375  and  _376
REMARK  165  A    between atoms: _375  and  _378
REMARK  166  A    between atoms: _381  and  _383
REMARK  167  A    between atoms: _383  and  _384
REMARK  168  A    between atoms: _383  and  _386
REMARK  169  A    between atoms: _389  and  _391
REMARK  170  A    between atoms: _391  and  _392
REMARK  171  A    between atoms: _395  and  _397
REMARK  172  A    between atoms: _397  and  _398
REMARK  173  A    between atoms: _401  and  _403
REMARK  174  A    between atoms: _403  and  _404
REMARK  175  A    between atoms: _403  and  _406
REMARK  176  A    between atoms: _406  and  _407
REMARK  177  A    between atoms: _410  and  _412
REMARK  178  A    between atoms: _412  and  _413
REMARK  179  A    between atoms: _412  and  _415
REMARK  180  A    between atoms: _415  and  _416
REMARK  181  A    between atoms: _416  and  _417
REMARK  182  A    between atoms: _422  and  _424
REMARK  183  A    between atoms: _424  and  _425
REMARK  184  A    between atoms: _424  and  _427
REMARK  185  A    between atoms: _430  and  _432
REMARK  186  A    between atoms: _432  and  _433
REMARK  187  A    between atoms: _432  and  _435
REMARK  188  A    between atoms: _435  and  _436
REMARK  189  A    between atoms: _436  and  _437
REMARK  190  A    between atoms: _437  and  _438
REMARK  191  A    between atoms: _447  and  _449
REMARK  192  A    between atoms: _449  and  _450
REMARK  193  A    between atoms: _449  and  _452
REMARK  194  A    between atoms: _452  and  _453
REMARK  195  A    between atoms: _456  and  _458
REMARK  196  A    between atoms: _458  and  _459
REMARK  197  A    between atoms: _462  and  _464
REMARK  198  A    between atoms: _464  and  _465
REMARK  199  A    between atoms: _464  and  _467
REMARK                            x       y       z     vdW  Elec       q    Type
REMARK                         _______ _______ _______ _____ _____    ______ ____
ROOT
ATOM      1  O   HOH     1     -16.920  -0.889   4.822  0.00  0.00    +0.000 OA
ENDROOT
TORSDOF 0
REMARK  Name = ../refined-set-2016/4ozj/4ozj_pocket.pdb
REMARK  199 active torsions:
REMARK  status: ('A' for Active; 'I' for Inactive)
REMARK    1  A    between atoms: _1  and  _3
REMARK    2  A    between atoms: _3  and  _4
REMARK    3  A    between atoms: _3  and  _6
REMARK    4  A    between atoms: _6  and  _7
REMARK    5  A    between atoms: _7  and  _8
REMARK    6  A    between atoms: _10  and  _12
REMARK    7  A    between atoms: _12  and  _13
REMARK    8  A    between atoms: _16  and  _18
REMARK    9  A    between atoms: _18  and  _19
REMARK   10  A    between atoms: _18  and  _21
REMARK   11  A    between atoms: _21  and  _22
REMARK   12  A    between atoms: _25  and  _27
REMARK   13  A    between atoms: _27  and  _28
REMARK   14  A    between atoms: _27  and  _30
REMARK   15  A    between atoms: _30  and  _31
REMARK   16  A    between atoms: _34  and  _36
REMARK   17  A    between atoms: _36  and  _37
REMARK   18  A    between atoms: _36  and  _39
REMARK   19  A    between atoms: _39  and  _40
REMARK   20  A    between atoms: _40  and  _41
REMARK   21  A    between atoms: _41  and  _42
REMARK   22  A    between atoms: _51  and  _53
REMARK   23  A    between atoms: _53  and  _54
REMARK   24  A    between atoms: _53  and  _56
REMARK   25  A    between atoms: _59  and  _61
REMARK   26  A    between atoms: _61  and  _62
REMARK   27  A    between atoms: _61  and  _64
REMARK   28  A    between atoms: _64  and  _65
REMARK   29  A    between atoms: _67  and  _69
REMARK   30  A    between atoms: _69  and  _70
REMARK   31  A    between atoms: _72  and  _74
REMARK   32  A    between atoms: _74  and  _75
REMARK   33  A    between atoms: _74  and  _77
REMARK   34  A    between atoms: _77  and  _78
REMARK   35  A    between atoms: _78  and  _79
REMARK   36  A    between atoms: _79  and  _80
REMARK   37  A    between atoms: _89  and  _91
REMARK   38  A    between atoms: _91  and  _92
REMARK   39  A    between atoms: _94  and  _96
REMARK   40  A    between atoms: _96  and  _97
REMARK   41  A    between atoms: _96  and  _99
REMARK   42  A    between atoms: _99  and  _100
REMARK   43  A    between atoms: _102  and  _104
REMARK   44  A    between atoms: _104  and  _105
REMARK   45  A    between atoms: _104  and  _107
REMARK   46  A    between atoms: _107  and  _108
REMARK   47  A    between atoms: _111  and  _113
REMARK   48  A    between atoms: _113  and  _114
REMARK   49  A    between atoms: _113  and  _116
REMARK   50  A    between atoms: _116  and  _117
REMARK   51  A    between atoms: _120  and  _122
REMARK   52  A    between atoms: _122  and  _123
REMARK   53  A    between atoms: _122  and  _125
REMARK   54  A    between atoms: _125  and  _126
REMARK   55  A    between atoms: _131  and  _133
REMARK   56  A    between atoms: _133  and  _134
REMARK   57  A    between atoms: _133  and  _136
REMARK   58  A    between atoms: _136  and  _137
REMARK   59  A    between atoms: _137  and  _138
REMARK   60  A    between atoms: _143  and  _145
REMARK   61  A    between atoms: _145  and  _146
REMARK   62  A    between atoms: _145  and  _148
REMARK   63  A    between atoms: _148  and  _149
REMARK   64  A    between atoms: _149  and  _150
REMARK   65  A    between atoms: _150  and  _151
REMARK   66  A    between atoms: _151  and  _152
REMARK   67  A    between atoms: _156  and  _158
REMARK   68  A    between atoms: _158  and  _159
REMARK   69  A    between atoms: _158  and  _161
REMARK   70  A    between atoms: _164  and  _166
REMARK   71  A    between atoms: _166  and  _167
REMARK   72  A    between atoms: _166  and  _169
REMARK   73  A    between atoms: _169  and  _170
REMARK   74  A    between atoms: _170  and  _171
REMARK   75  A    between atoms: _171  and  _172
REMARK   76  A    between atoms: _172  and  _173
REMARK   77  A    between atoms: _177  and  _179
REMARK   78  A    between atoms: _179  and  _180
REMARK   79  A    between atoms: _179  and  _182
REMARK   80  A    between atoms: _182  and  _183
REMARK   81  A    between atoms: _186  and  _188
REMARK   82  A    between atoms: _188  and  _189
REMARK   83  A    between atoms: _188  and  _191
REMARK   84  A    between atoms: _191  and  _192
REMARK   85  A    between atoms: _192  and  _193
REMARK   86  A    between atoms: _196  and  _198
REMARK   87  A    between atoms: _198  and  _199
REMARK   88  A    between atoms: _198  and  _201
REMARK   89  A    between atoms: _201  and  _202
REMARK   90  A    between atoms: _202  and  _203
REMARK   91  A    between atoms: _203  and  _204
REMARK   92  A    between atoms: _204  and  _205
REMARK   93  A    between atoms: _209  and  _211
REMARK   94  A    between atoms: _211  and  _212
REMARK   95  A    between atoms: _214  and  _216
REMARK   96  A    between atoms: _216  and  _217
REMARK   97  A    between atoms: _216  and  _219
REMARK   98  A    between atoms: _219  and  _220
REMARK   99  A    between atoms: _223  and  _225
REMARK  100  A    between atoms: _225  and  _226
REMARK  101  A    between atoms: _228  and  _230
REMARK  102  A    between atoms: _230  and  _231
REMARK  103  A    between atoms: _230  and  _233
REMARK  104  A    between atoms: _233  and  _234
REMARK  105  A    between atoms: _234  and  _235
REMARK  106  A    between atoms: _235  and  _236
REMARK  107  A    between atoms: _236  and  _237
REMARK  108  A    between atoms: _241  and  _243
REMARK  109  A    between atoms: _243  and  _244
REMARK  110  A    between atoms: _243  and  _246
REMARK  111  A    between atoms: _246  and  _247
REMARK  112  A    between atoms: _250  and  _252
REMARK  113  A    between atoms: _252  and  _253
REMARK  114  A    between atoms: _252  and  _255
REMARK  115  A    between atoms: _255  and  _256
REMARK  116  A    between atoms: _262  and  _264
REMARK  117  A    between atoms: _264  and  _265
REMARK  118  A    between atoms: _264  and  _267
REMARK  119  A    between atoms: _267  and  _268
REMARK  120  A    between atoms: _271  and  _273
REMARK  121  A    between atoms: _273  and  _274
REMARK  122  A    between atoms: _273  and  _276
REMARK  123  A    between atoms: _276  and  _277
REMARK  124  A    between atoms: _277  and  _278
REMARK  125  A    between atoms: _278  and  _279
REMARK  126  A    between atoms: _279  and  _280
REMARK  127  A    between atoms: _284  and  _286
REMARK  128  A    between atoms: _286  and  _287
REMARK  129  A    between atoms: _286  and  _289
REMARK  130  A    between atoms: _289  and  _290
REMARK  131  A    between atoms: _293  and  _295
REMARK  132  A    between atoms: _295  and  _296
REMARK  133  A    between atoms: _295  and  _298
REMARK  134  A    between atoms: _301  and  _303
REMARK  135  A    between atoms: _303  and  _304
REMARK  136  A    between atoms: _308  and  _309
REMARK  137  A    between atoms: _314  and  _316
REMARK  138  A    between atoms: _316  and  _317
REMARK  139  A    between atoms: _316  and  _319
REMARK  140  A    between atoms: _319  and  _320
REMARK  141  A    between atoms: _322  and  _324
REMARK  142  A    between atoms: _324  and  _325
REMARK  143  A    between atoms: _324  and  _327
REMARK  144  A    between atoms: _327  and  _328
REMARK  145  A    between atoms: _331  and  _333
REMARK  146  A    between atoms: _333  and  _334
REMARK  147  A    between atoms: _333  and  _336
REMARK  148  A    between atoms: _336  and  _337
REMARK  149  A    between atoms: _340  and  _342
REMARK  150  A    between atoms: _342  and  _343
REMARK  151  A    between atoms: _342  and  _345
REMARK  152  A    between atoms: _348  and  _350
REMARK  153  A    between atoms: _350  and  _351
REMARK  154  A    between atoms: _350  and  _353
REMARK  155  A    between atoms: _356  and  _358
REMARK  156  A    between atoms: _358  and  _359
REMARK  157  A    between atoms: _358  and  _361
REMARK  158  A    between atoms: _361  and  _362
REMARK  159  A    between atoms: _362  and  _363
REMARK  160  A    between atoms: _366  and  _368
REMARK  161  A    between atoms: _368  and  _369
REMARK  162  A    between atoms: _368  and  _371
REMARK  163  A    between atoms: _373  and  _375
REMARK  164  A    between atoms: _375  and  _376
REMARK  165  A    between atoms: _375  and  _378
REMARK  166  A    between atoms: _381  and  _383
REMARK  167  A    between atoms: _383  and  _384
REMARK  168  A    between atoms: _383  and  _386
REMARK  169  A    between atoms: _389  and  _391
REMARK  170  A    between atoms: _391  and  _392
REMARK  171  A    between atoms: _395  and  _397
REMARK  172  A    between atoms: _397  and  _398
REMARK  173  A    between atoms: _401  and  _403
REMARK  174  A    between atoms: _403  and  _404
REMARK  175  A    between atoms: _403  and  _406
REMARK  176  A    between atoms: _406  and  _407
REMARK  177  A    between atoms: _410  and  _412
REMARK  178  A    between atoms: _412  and  _413
REMARK  179  A    between atoms: _412  and  _415
REMARK  180  A    between atoms: _415  and  _416
REMARK  181  A    between atoms: _416  and  _417
REMARK  182  A    between atoms: _422  and  _424
REMARK  183  A    between atoms: _424  and  _425
REMARK  184  A    between atoms: _424  and  _427
REMARK  185  A    between atoms: _430  and  _432
REMARK  186  A    between atoms: _432  and  _433
REMARK  187  A    between atoms: _432  and  _435
REMARK  188  A    between atoms: _435  and  _436
REMARK  189  A    between atoms: _436  and  _437
REMARK  190  A    between atoms: _437  and  _438
REMARK  191  A    between atoms: _447  and  _449
REMARK  192  A    between atoms: _449  and  _450
REMARK  193  A    between atoms: _449  and  _452
REMARK  194  A    between atoms: _452  and  _453
REMARK  195  A    between atoms: _456  and  _458
REMARK  196  A    between atoms: _458  and  _459
REMARK  197  A    between atoms: _462  and  _464
REMARK  198  A    between atoms: _464  and  _465
REMARK  199  A    between atoms: _464  and  _467
REMARK                            x       y       z     vdW  Elec       q    Type
REMARK                         _______ _______ _______ _____ _____    ______ ____
ROOT
ATOM      1  O   HOH     1      -4.506  -2.885  10.108  0.00  0.00    +0.000 OA
ENDROOT
TORSDOF 0
REMARK  Name = ../refined-set-2016/4ozj/4ozj_pocket.pdb
REMARK  199 active torsions:
REMARK  status: ('A' for Active; 'I' for Inactive)
REMARK    1  A    between atoms: _1  and  _3
REMARK    2  A    between atoms: _3  and  _4
REMARK    3  A    between atoms: _3  and  _6
REMARK    4  A    between atoms: _6  and  _7
REMARK    5  A    between atoms: _7  and  _8
REMARK    6  A    between atoms: _10  and  _12
REMARK    7  A    between atoms: _12  and  _13
REMARK    8  A    between atoms: _16  and  _18
REMARK    9  A    between atoms: _18  and  _19
REMARK   10  A    between atoms: _18  and  _21
REMARK   11  A    between atoms: _21  and  _22
REMARK   12  A    between atoms: _25  and  _27
REMARK   13  A    between atoms: _27  and  _28
REMARK   14  A    between atoms: _27  and  _30
REMARK   15  A    between atoms: _30  and  _31
REMARK   16  A    between atoms: _34  and  _36
REMARK   17  A    between atoms: _36  and  _37
REMARK   18  A    between atoms: _36  and  _39
REMARK   19  A    between atoms: _39  and  _40
REMARK   20  A    between atoms: _40  and  _41
REMARK   21  A    between atoms: _41  and  _42
REMARK   22  A    between atoms: _51  and  _53
REMARK   23  A    between atoms: _53  and  _54
REMARK   24  A    between atoms: _53  and  _56
REMARK   25  A    between atoms: _59  and  _61
REMARK   26  A    between atoms: _61  and  _62
REMARK   27  A    between atoms: _61  and  _64
REMARK   28  A    between atoms: _64  and  _65
REMARK   29  A    between atoms: _67  and  _69
REMARK   30  A    between atoms: _69  and  _70
REMARK   31  A    between atoms: _72  and  _74
REMARK   32  A    between atoms: _74  and  _75
REMARK   33  A    between atoms: _74  and  _77
REMARK   34  A    between atoms: _77  and  _78
REMARK   35  A    between atoms: _78  and  _79
REMARK   36  A    between atoms: _79  and  _80
REMARK   37  A    between atoms: _89  and  _91
REMARK   38  A    between atoms: _91  and  _92
REMARK   39  A    between atoms: _94  and  _96
REMARK   40  A    between atoms: _96  and  _97
REMARK   41  A    between atoms: _96  and  _99
REMARK   42  A    between atoms: _99  and  _100
REMARK   43  A    between atoms: _102  and  _104
REMARK   44  A    between atoms: _104  and  _105
REMARK   45  A    between atoms: _104  and  _107
REMARK   46  A    between atoms: _107  and  _108
REMARK   47  A    between atoms: _111  and  _113
REMARK   48  A    between atoms: _113  and  _114
REMARK   49  A    between atoms: _113  and  _116
REMARK   50  A    between atoms: _116  and  _117
REMARK   51  A    between atoms: _120  and  _122
REMARK   52  A    between atoms: _122  and  _123
REMARK   53  A    between atoms: _122  and  _125
REMARK   54  A    between atoms: _125  and  _126
REMARK   55  A    between atoms: _131  and  _133
REMARK   56  A    between atoms: _133  and  _134
REMARK   57  A    between atoms: _133  and  _136
REMARK   58  A    between atoms: _136  and  _137
REMARK   59  A    between atoms: _137  and  _138
REMARK   60  A    between atoms: _143  and  _145
REMARK   61  A    between atoms: _145  and  _146
REMARK   62  A    between atoms: _145  and  _148
REMARK   63  A    between atoms: _148  and  _149
REMARK   64  A    between atoms: _149  and  _150
REMARK   65  A    between atoms: _150  and  _151
REMARK   66  A    between atoms: _151  and  _152
REMARK   67  A    between atoms: _156  and  _158
REMARK   68  A    between atoms: _158  and  _159
REMARK   69  A    between atoms: _158  and  _161
REMARK   70  A    between atoms: _164  and  _166
REMARK   71  A    between atoms: _166  and  _167
REMARK   72  A    between atoms: _166  and  _169
REMARK   73  A    between atoms: _169  and  _170
REMARK   74  A    between atoms: _170  and  _171
REMARK   75  A    between atoms: _171  and  _172
REMARK   76  A    between atoms: _172  and  _173
REMARK   77  A    between atoms: _177  and  _179
REMARK   78  A    between atoms: _179  and  _180
REMARK   79  A    between atoms: _179  and  _182
REMARK   80  A    between atoms: _182  and  _183
REMARK   81  A    between atoms: _186  and  _188
REMARK   82  A    between atoms: _188  and  _189
REMARK   83  A    between atoms: _188  and  _191
REMARK   84  A    between atoms: _191  and  _192
REMARK   85  A    between atoms: _192  and  _193
REMARK   86  A    between atoms: _196  and  _198
REMARK   87  A    between atoms: _198  and  _199
REMARK   88  A    between atoms: _198  and  _201
REMARK   89  A    between atoms: _201  and  _202
REMARK   90  A    between atoms: _202  and  _203
REMARK   91  A    between atoms: _203  and  _204
REMARK   92  A    between atoms: _204  and  _205
REMARK   93  A    between atoms: _209  and  _211
REMARK   94  A    between atoms: _211  and  _212
REMARK   95  A    between atoms: _214  and  _216
REMARK   96  A    between atoms: _216  and  _217
REMARK   97  A    between atoms: _216  and  _219
REMARK   98  A    between atoms: _219  and  _220
REMARK   99  A    between atoms: _223  and  _225
REMARK  100  A    between atoms: _225  and  _226
REMARK  101  A    between atoms: _228  and  _230
REMARK  102  A    between atoms: _230  and  _231
REMARK  103  A    between atoms: _230  and  _233
REMARK  104  A    between atoms: _233  and  _234
REMARK  105  A    between atoms: _234  and  _235
REMARK  106  A    between atoms: _235  and  _236
REMARK  107  A    between atoms: _236  and  _237
REMARK  108  A    between atoms: _241  and  _243
REMARK  109  A    between atoms: _243  and  _244
REMARK  110  A    between atoms: _243  and  _246
REMARK  111  A    between atoms: _246  and  _247
REMARK  112  A    between atoms: _250  and  _252
REMARK  113  A    between atoms: _252  and  _253
REMARK  114  A    between atoms: _252  and  _255
REMARK  115  A    between atoms: _255  and  _256
REMARK  116  A    between atoms: _262  and  _264
REMARK  117  A    between atoms: _264  and  _265
REMARK  118  A    between atoms: _264  and  _267
REMARK  119  A    between atoms: _267  and  _268
REMARK  120  A    between atoms: _271  and  _273
REMARK  121  A    between atoms: _273  and  _274
REMARK  122  A    between atoms: _273  and  _276
REMARK  123  A    between atoms: _276  and  _277
REMARK  124  A    between atoms: _277  and  _278
REMARK  125  A    between atoms: _278  and  _279
REMARK  126  A    between atoms: _279  and  _280
REMARK  127  A    between atoms: _284  and  _286
REMARK  128  A    between atoms: _286  and  _287
REMARK  129  A    between atoms: _286  and  _289
REMARK  130  A    between atoms: _289  and  _290
REMARK  131  A    between atoms: _293  and  _295
REMARK  132  A    between atoms: _295  and  _296
REMARK  133  A    between atoms: _295  and  _298
REMARK  134  A    between atoms: _301  and  _303
REMARK  135  A    between atoms: _303  and  _304
REMARK  136  A    between atoms: _308  and  _309
REMARK  137  A    between atoms: _314  and  _316
REMARK  138  A    between atoms: _316  and  _317
REMARK  139  A    between atoms: _316  and  _319
REMARK  140  A    between atoms: _319  and  _320
REMARK  141  A    between atoms: _322  and  _324
REMARK  142  A    between atoms: _324  and  _325
REMARK  143  A    between atoms: _324  and  _327
REMARK  144  A    between atoms: _327  and  _328
REMARK  145  A    between atoms: _331  and  _333
REMARK  146  A    between atoms: _333  and  _334
REMARK  147  A    between atoms: _333  and  _336
REMARK  148  A    between atoms: _336  and  _337
REMARK  149  A    between atoms: _340  and  _342
REMARK  150  A    between atoms: _342  and  _343
REMARK  151  A    between atoms: _342  and  _345
REMARK  152  A    between atoms: _348  and  _350
REMARK  153  A    between atoms: _350  and  _351
REMARK  154  A    between atoms: _350  and  _353
REMARK  155  A    between atoms: _356  and  _358
REMARK  156  A    between atoms: _358  and  _359
REMARK  157  A    between atoms: _358  and  _361
REMARK  158  A    between atoms: _361  and  _362
REMARK  159  A    between atoms: _362  and  _363
REMARK  160  A    between atoms: _366  and  _368
REMARK  161  A    between atoms: _368  and  _369
REMARK  162  A    between atoms: _368  and  _371
REMARK  163  A    between atoms: _373  and  _375
REMARK  164  A    between atoms: _375  and  _376
REMARK  165  A    between atoms: _375  and  _378
REMARK  166  A    between atoms: _381  and  _383
REMARK  167  A    between atoms: _383  and  _384
REMARK  168  A    between atoms: _383  and  _386
REMARK  169  A    between atoms: _389  and  _391
REMARK  170  A    between atoms: _391  and  _392
REMARK  171  A    between atoms: _395  and  _397
REMARK  172  A    between atoms: _397  and  _398
REMARK  173  A    between atoms: _401  and  _403
REMARK  174  A    between atoms: _403  and  _404
REMARK  175  A    between atoms: _403  and  _406
REMARK  176  A    between atoms: _406  and  _407
REMARK  177  A    between atoms: _410  and  _412
REMARK  178  A    between atoms: _412  and  _413
REMARK  179  A    between atoms: _412  and  _415
REMARK  180  A    between atoms: _415  and  _416
REMARK  181  A    between atoms: _416  and  _417
REMARK  182  A    between atoms: _422  and  _424
REMARK  183  A    between atoms: _424  and  _425
REMARK  184  A    between atoms: _424  and  _427
REMARK  185  A    between atoms: _430  and  _432
REMARK  186  A    between atoms: _432  and  _433
REMARK  187  A    between atoms: _432  and  _435
REMARK  188  A    between atoms: _435  and  _436
REMARK  189  A    between atoms: _436  and  _437
REMARK  190  A    between atoms: _437  and  _438
REMARK  191  A    between atoms: _447  and  _449
REMARK  192  A    between atoms: _449  and  _450
REMARK  193  A    between atoms: _449  and  _452
REMARK  194  A    between atoms: _452  and  _453
REMARK  195  A    between atoms: _456  and  _458
REMARK  196  A    between atoms: _458  and  _459
REMARK  197  A    between atoms: _462  and  _464
REMARK  198  A    between atoms: _464  and  _465
REMARK  199  A    between atoms: _464  and  _467
REMARK                            x       y       z     vdW  Elec       q    Type
REMARK                         _______ _______ _______ _____ _____    ______ ____
ROOT
ATOM      1  O   HOH     1     -13.852  -6.031  16.218  0.00  0.00    +0.000 OA
ENDROOT
TORSDOF 0
REMARK  Name = ../refined-set-2016/4ozj/4ozj_pocket.pdb
REMARK  199 active torsions:
REMARK  status: ('A' for Active; 'I' for Inactive)
REMARK    1  A    between atoms: _1  and  _3
REMARK    2  A    between atoms: _3  and  _4
REMARK    3  A    between atoms: _3  and  _6
REMARK    4  A    between atoms: _6  and  _7
REMARK    5  A    between atoms: _7  and  _8
REMARK    6  A    between atoms: _10  and  _12
REMARK    7  A    between atoms: _12  and  _13
REMARK    8  A    between atoms: _16  and  _18
REMARK    9  A    between atoms: _18  and  _19
REMARK   10  A    between atoms: _18  and  _21
REMARK   11  A    between atoms: _21  and  _22
REMARK   12  A    between atoms: _25  and  _27
REMARK   13  A    between atoms: _27  and  _28
REMARK   14  A    between atoms: _27  and  _30
REMARK   15  A    between atoms: _30  and  _31
REMARK   16  A    between atoms: _34  and  _36
REMARK   17  A    between atoms: _36  and  _37
REMARK   18  A    between atoms: _36  and  _39
REMARK   19  A    between atoms: _39  and  _40
REMARK   20  A    between atoms: _40  and  _41
REMARK   21  A    between atoms: _41  and  _42
REMARK   22  A    between atoms: _51  and  _53
REMARK   23  A    between atoms: _53  and  _54
REMARK   24  A    between atoms: _53  and  _56
REMARK   25  A    between atoms: _59  and  _61
REMARK   26  A    between atoms: _61  and  _62
REMARK   27  A    between atoms: _61  and  _64
REMARK   28  A    between atoms: _64  and  _65
REMARK   29  A    between atoms: _67  and  _69
REMARK   30  A    between atoms: _69  and  _70
REMARK   31  A    between atoms: _72  and  _74
REMARK   32  A    between atoms: _74  and  _75
REMARK   33  A    between atoms: _74  and  _77
REMARK   34  A    between atoms: _77  and  _78
REMARK   35  A    between atoms: _78  and  _79
REMARK   36  A    between atoms: _79  and  _80
REMARK   37  A    between atoms: _89  and  _91
REMARK   38  A    between atoms: _91  and  _92
REMARK   39  A    between atoms: _94  and  _96
REMARK   40  A    between atoms: _96  and  _97
REMARK   41  A    between atoms: _96  and  _99
REMARK   42  A    between atoms: _99  and  _100
REMARK   43  A    between atoms: _102  and  _104
REMARK   44  A    between atoms: _104  and  _105
REMARK   45  A    between atoms: _104  and  _107
REMARK   46  A    between atoms: _107  and  _108
REMARK   47  A    between atoms: _111  and  _113
REMARK   48  A    between atoms: _113  and  _114
REMARK   49  A    between atoms: _113  and  _116
REMARK   50  A    between atoms: _116  and  _117
REMARK   51  A    between atoms: _120  and  _122
REMARK   52  A    between atoms: _122  and  _123
REMARK   53  A    between atoms: _122  and  _125
REMARK   54  A    between atoms: _125  and  _126
REMARK   55  A    between atoms: _131  and  _133
REMARK   56  A    between atoms: _133  and  _134
REMARK   57  A    between atoms: _133  and  _136
REMARK   58  A    between atoms: _136  and  _137
REMARK   59  A    between atoms: _137  and  _138
REMARK   60  A    between atoms: _143  and  _145
REMARK   61  A    between atoms: _145  and  _146
REMARK   62  A    between atoms: _145  and  _148
REMARK   63  A    between atoms: _148  and  _149
REMARK   64  A    between atoms: _149  and  _150
REMARK   65  A    between atoms: _150  and  _151
REMARK   66  A    between atoms: _151  and  _152
REMARK   67  A    between atoms: _156  and  _158
REMARK   68  A    between atoms: _158  and  _159
REMARK   69  A    between atoms: _158  and  _161
REMARK   70  A    between atoms: _164  and  _166
REMARK   71  A    between atoms: _166  and  _167
REMARK   72  A    between atoms: _166  and  _169
REMARK   73  A    between atoms: _169  and  _170
REMARK   74  A    between atoms: _170  and  _171
REMARK   75  A    between atoms: _171  and  _172
REMARK   76  A    between atoms: _172  and  _173
REMARK   77  A    between atoms: _177  and  _179
REMARK   78  A    between atoms: _179  and  _180
REMARK   79  A    between atoms: _179  and  _182
REMARK   80  A    between atoms: _182  and  _183
REMARK   81  A    between atoms: _186  and  _188
REMARK   82  A    between atoms: _188  and  _189
REMARK   83  A    between atoms: _188  and  _191
REMARK   84  A    between atoms: _191  and  _192
REMARK   85  A    between atoms: _192  and  _193
REMARK   86  A    between atoms: _196  and  _198
REMARK   87  A    between atoms: _198  and  _199
REMARK   88  A    between atoms: _198  and  _201
REMARK   89  A    between atoms: _201  and  _202
REMARK   90  A    between atoms: _202  and  _203
REMARK   91  A    between atoms: _203  and  _204
REMARK   92  A    between atoms: _204  and  _205
REMARK   93  A    between atoms: _209  and  _211
REMARK   94  A    between atoms: _211  and  _212
REMARK   95  A    between atoms: _214  and  _216
REMARK   96  A    between atoms: _216  and  _217
REMARK   97  A    between atoms: _216  and  _219
REMARK   98  A    between atoms: _219  and  _220
REMARK   99  A    between atoms: _223  and  _225
REMARK  100  A    between atoms: _225  and  _226
REMARK  101  A    between atoms: _228  and  _230
REMARK  102  A    between atoms: _230  and  _231
REMARK  103  A    between atoms: _230  and  _233
REMARK  104  A    between atoms: _233  and  _234
REMARK  105  A    between atoms: _234  and  _235
REMARK  106  A    between atoms: _235  and  _236
REMARK  107  A    between atoms: _236  and  _237
REMARK  108  A    between atoms: _241  and  _243
REMARK  109  A    between atoms: _243  and  _244
REMARK  110  A    between atoms: _243  and  _246
REMARK  111  A    between atoms: _246  and  _247
REMARK  112  A    between atoms: _250  and  _252
REMARK  113  A    between atoms: _252  and  _253
REMARK  114  A    between atoms: _252  and  _255
REMARK  115  A    between atoms: _255  and  _256
REMARK  116  A    between atoms: _262  and  _264
REMARK  117  A    between atoms: _264  and  _265
REMARK  118  A    between atoms: _264  and  _267
REMARK  119  A    between atoms: _267  and  _268
REMARK  120  A    between atoms: _271  and  _273
REMARK  121  A    between atoms: _273  and  _274
REMARK  122  A    between atoms: _273  and  _276
REMARK  123  A    between atoms: _276  and  _277
REMARK  124  A    between atoms: _277  and  _278
REMARK  125  A    between atoms: _278  and  _279
REMARK  126  A    between atoms: _279  and  _280
REMARK  127  A    between atoms: _284  and  _286
REMARK  128  A    between atoms: _286  and  _287
REMARK  129  A    between atoms: _286  and  _289
REMARK  130  A    between atoms: _289  and  _290
REMARK  131  A    between atoms: _293  and  _295
REMARK  132  A    between atoms: _295  and  _296
REMARK  133  A    between atoms: _295  and  _298
REMARK  134  A    between atoms: _301  and  _303
REMARK  135  A    between atoms: _303  and  _304
REMARK  136  A    between atoms: _308  and  _309
REMARK  137  A    between atoms: _314  and  _316
REMARK  138  A    between atoms: _316  and  _317
REMARK  139  A    between atoms: _316  and  _319
REMARK  140  A    between atoms: _319  and  _320
REMARK  141  A    between atoms: _322  and  _324
REMARK  142  A    between atoms: _324  and  _325
REMARK  143  A    between atoms: _324  and  _327
REMARK  144  A    between atoms: _327  and  _328
REMARK  145  A    between atoms: _331  and  _333
REMARK  146  A    between atoms: _333  and  _334
REMARK  147  A    between atoms: _333  and  _336
REMARK  148  A    between atoms: _336  and  _337
REMARK  149  A    between atoms: _340  and  _342
REMARK  150  A    between atoms: _342  and  _343
REMARK  151  A    between atoms: _342  and  _345
REMARK  152  A    between atoms: _348  and  _350
REMARK  153  A    between atoms: _350  and  _351
REMARK  154  A    between atoms: _350  and  _353
REMARK  155  A    between atoms: _356  and  _358
REMARK  156  A    between atoms: _358  and  _359
REMARK  157  A    between atoms: _358  and  _361
REMARK  158  A    between atoms: _361  and  _362
REMARK  159  A    between atoms: _362  and  _363
REMARK  160  A    between atoms: _366  and  _368
REMARK  161  A    between atoms: _368  and  _369
REMARK  162  A    between atoms: _368  and  _371
REMARK  163  A    between atoms: _373  and  _375
REMARK  164  A    between atoms: _375  and  _376
REMARK  165  A    between atoms: _375  and  _378
REMARK  166  A    between atoms: _381  and  _383
REMARK  167  A    between atoms: _383  and  _384
REMARK  168  A    between atoms: _383  and  _386
REMARK  169  A    between atoms: _389  and  _391
REMARK  170  A    between atoms: _391  and  _392
REMARK  171  A    between atoms: _395  and  _397
REMARK  172  A    between atoms: _397  and  _398
REMARK  173  A    between atoms: _401  and  _403
REMARK  174  A    between atoms: _403  and  _404
REMARK  175  A    between atoms: _403  and  _406
REMARK  176  A    between atoms: _406  and  _407
REMARK  177  A    between atoms: _410  and  _412
REMARK  178  A    between atoms: _412  and  _413
REMARK  179  A    between atoms: _412  and  _415
REMARK  180  A    between atoms: _415  and  _416
REMARK  181  A    between atoms: _416  and  _417
REMARK  182  A    between atoms: _422  and  _424
REMARK  183  A    between atoms: _424  and  _425
REMARK  184  A    between atoms: _424  and  _427
REMARK  185  A    between atoms: _430  and  _432
REMARK  186  A    between atoms: _432  and  _433
REMARK  187  A    between atoms: _432  and  _435
REMARK  188  A    between atoms: _435  and  _436
REMARK  189  A    between atoms: _436  and  _437
REMARK  190  A    between atoms: _437  and  _438
REMARK  191  A    between atoms: _447  and  _449
REMARK  192  A    between atoms: _449  and  _450
REMARK  193  A    between atoms: _449  and  _452
REMARK  194  A    between atoms: _452  and  _453
REMARK  195  A    between atoms: _456  and  _458
REMARK  196  A    between atoms: _458  and  _459
REMARK  197  A    between atoms: _462  and  _464
REMARK  198  A    between atoms: _464  and  _465
REMARK  199  A    between atoms: _464  and  _467
REMARK                            x       y       z     vdW  Elec       q    Type
REMARK                         _______ _______ _______ _____ _____    ______ ____
ROOT
ATOM      1  O   HOH     1     -15.107  -4.123  18.304  0.00  0.00    +0.000 OA
ENDROOT
TORSDOF 0
REMARK  Name = ../refined-set-2016/4ozj/4ozj_pocket.pdb
REMARK  199 active torsions:
REMARK  status: ('A' for Active; 'I' for Inactive)
REMARK    1  A    between atoms: _1  and  _3
REMARK    2  A    between atoms: _3  and  _4
REMARK    3  A    between atoms: _3  and  _6
REMARK    4  A    between atoms: _6  and  _7
REMARK    5  A    between atoms: _7  and  _8
REMARK    6  A    between atoms: _10  and  _12
REMARK    7  A    between atoms: _12  and  _13
REMARK    8  A    between atoms: _16  and  _18
REMARK    9  A    between atoms: _18  and  _19
REMARK   10  A    between atoms: _18  and  _21
REMARK   11  A    between atoms: _21  and  _22
REMARK   12  A    between atoms: _25  and  _27
REMARK   13  A    between atoms: _27  and  _28
REMARK   14  A    between atoms: _27  and  _30
REMARK   15  A    between atoms: _30  and  _31
REMARK   16  A    between atoms: _34  and  _36
REMARK   17  A    between atoms: _36  and  _37
REMARK   18  A    between atoms: _36  and  _39
REMARK   19  A    between atoms: _39  and  _40
REMARK   20  A    between atoms: _40  and  _41
REMARK   21  A    between atoms: _41  and  _42
REMARK   22  A    between atoms: _51  and  _53
REMARK   23  A    between atoms: _53  and  _54
REMARK   24  A    between atoms: _53  and  _56
REMARK   25  A    between atoms: _59  and  _61
REMARK   26  A    between atoms: _61  and  _62
REMARK   27  A    between atoms: _61  and  _64
REMARK   28  A    between atoms: _64  and  _65
REMARK   29  A    between atoms: _67  and  _69
REMARK   30  A    between atoms: _69  and  _70
REMARK   31  A    between atoms: _72  and  _74
REMARK   32  A    between atoms: _74  and  _75
REMARK   33  A    between atoms: _74  and  _77
REMARK   34  A    between atoms: _77  and  _78
REMARK   35  A    between atoms: _78  and  _79
REMARK   36  A    between atoms: _79  and  _80
REMARK   37  A    between atoms: _89  and  _91
REMARK   38  A    between atoms: _91  and  _92
REMARK   39  A    between atoms: _94  and  _96
REMARK   40  A    between atoms: _96  and  _97
REMARK   41  A    between atoms: _96  and  _99
REMARK   42  A    between atoms: _99  and  _100
REMARK   43  A    between atoms: _102  and  _104
REMARK   44  A    between atoms: _104  and  _105
REMARK   45  A    between atoms: _104  and  _107
REMARK   46  A    between atoms: _107  and  _108
REMARK   47  A    between atoms: _111  and  _113
REMARK   48  A    between atoms: _113  and  _114
REMARK   49  A    between atoms: _113  and  _116
REMARK   50  A    between atoms: _116  and  _117
REMARK   51  A    between atoms: _120  and  _122
REMARK   52  A    between atoms: _122  and  _123
REMARK   53  A    between atoms: _122  and  _125
REMARK   54  A    between atoms: _125  and  _126
REMARK   55  A    between atoms: _131  and  _133
REMARK   56  A    between atoms: _133  and  _134
REMARK   57  A    between atoms: _133  and  _136
REMARK   58  A    between atoms: _136  and  _137
REMARK   59  A    between atoms: _137  and  _138
REMARK   60  A    between atoms: _143  and  _145
REMARK   61  A    between atoms: _145  and  _146
REMARK   62  A    between atoms: _145  and  _148
REMARK   63  A    between atoms: _148  and  _149
REMARK   64  A    between atoms: _149  and  _150
REMARK   65  A    between atoms: _150  and  _151
REMARK   66  A    between atoms: _151  and  _152
REMARK   67  A    between atoms: _156  and  _158
REMARK   68  A    between atoms: _158  and  _159
REMARK   69  A    between atoms: _158  and  _161
REMARK   70  A    between atoms: _164  and  _166
REMARK   71  A    between atoms: _166  and  _167
REMARK   72  A    between atoms: _166  and  _169
REMARK   73  A    between atoms: _169  and  _170
REMARK   74  A    between atoms: _170  and  _171
REMARK   75  A    between atoms: _171  and  _172
REMARK   76  A    between atoms: _172  and  _173
REMARK   77  A    between atoms: _177  and  _179
REMARK   78  A    between atoms: _179  and  _180
REMARK   79  A    between atoms: _179  and  _182
REMARK   80  A    between atoms: _182  and  _183
REMARK   81  A    between atoms: _186  and  _188
REMARK   82  A    between atoms: _188  and  _189
REMARK   83  A    between atoms: _188  and  _191
REMARK   84  A    between atoms: _191  and  _192
REMARK   85  A    between atoms: _192  and  _193
REMARK   86  A    between atoms: _196  and  _198
REMARK   87  A    between atoms: _198  and  _199
REMARK   88  A    between atoms: _198  and  _201
REMARK   89  A    between atoms: _201  and  _202
REMARK   90  A    between atoms: _202  and  _203
REMARK   91  A    between atoms: _203  and  _204
REMARK   92  A    between atoms: _204  and  _205
REMARK   93  A    between atoms: _209  and  _211
REMARK   94  A    between atoms: _211  and  _212
REMARK   95  A    between atoms: _214  and  _216
REMARK   96  A    between atoms: _216  and  _217
REMARK   97  A    between atoms: _216  and  _219
REMARK   98  A    between atoms: _219  and  _220
REMARK   99  A    between atoms: _223  and  _225
REMARK  100  A    between atoms: _225  and  _226
REMARK  101  A    between atoms: _228  and  _230
REMARK  102  A    between atoms: _230  and  _231
REMARK  103  A    between atoms: _230  and  _233
REMARK  104  A    between atoms: _233  and  _234
REMARK  105  A    between atoms: _234  and  _235
REMARK  106  A    between atoms: _235  and  _236
REMARK  107  A    between atoms: _236  and  _237
REMARK  108  A    between atoms: _241  and  _243
REMARK  109  A    between atoms: _243  and  _244
REMARK  110  A    between atoms: _243  and  _246
REMARK  111  A    between atoms: _246  and  _247
REMARK  112  A    between atoms: _250  and  _252
REMARK  113  A    between atoms: _252  and  _253
REMARK  114  A    between atoms: _252  and  _255
REMARK  115  A    between atoms: _255  and  _256
REMARK  116  A    between atoms: _262  and  _264
REMARK  117  A    between atoms: _264  and  _265
REMARK  118  A    between atoms: _264  and  _267
REMARK  119  A    between atoms: _267  and  _268
REMARK  120  A    between atoms: _271  and  _273
REMARK  121  A    between atoms: _273  and  _274
REMARK  122  A    between atoms: _273  and  _276
REMARK  123  A    between atoms: _276  and  _277
REMARK  124  A    between atoms: _277  and  _278
REMARK  125  A    between atoms: _278  and  _279
REMARK  126  A    between atoms: _279  and  _280
REMARK  127  A    between atoms: _284  and  _286
REMARK  128  A    between atoms: _286  and  _287
REMARK  129  A    between atoms: _286  and  _289
REMARK  130  A    between atoms: _289  and  _290
REMARK  131  A    between atoms: _293  and  _295
REMARK  132  A    between atoms: _295  and  _296
REMARK  133  A    between atoms: _295  and  _298
REMARK  134  A    between atoms: _301  and  _303
REMARK  135  A    between atoms: _303  and  _304
REMARK  136  A    between atoms: _308  and  _309
REMARK  137  A    between atoms: _314  and  _316
REMARK  138  A    between atoms: _316  and  _317
REMARK  139  A    between atoms: _316  and  _319
REMARK  140  A    between atoms: _319  and  _320
REMARK  141  A    between atoms: _322  and  _324
REMARK  142  A    between atoms: _324  and  _325
REMARK  143  A    between atoms: _324  and  _327
REMARK  144  A    between atoms: _327  and  _328
REMARK  145  A    between atoms: _331  and  _333
REMARK  146  A    between atoms: _333  and  _334
REMARK  147  A    between atoms: _333  and  _336
REMARK  148  A    between atoms: _336  and  _337
REMARK  149  A    between atoms: _340  and  _342
REMARK  150  A    between atoms: _342  and  _343
REMARK  151  A    between atoms: _342  and  _345
REMARK  152  A    between atoms: _348  and  _350
REMARK  153  A    between atoms: _350  and  _351
REMARK  154  A    between atoms: _350  and  _353
REMARK  155  A    between atoms: _356  and  _358
REMARK  156  A    between atoms: _358  and  _359
REMARK  157  A    between atoms: _358  and  _361
REMARK  158  A    between atoms: _361  and  _362
REMARK  159  A    between atoms: _362  and  _363
REMARK  160  A    between atoms: _366  and  _368
REMARK  161  A    between atoms: _368  and  _369
REMARK  162  A    between atoms: _368  and  _371
REMARK  163  A    between atoms: _373  and  _375
REMARK  164  A    between atoms: _375  and  _376
REMARK  165  A    between atoms: _375  and  _378
REMARK  166  A    between atoms: _381  and  _383
REMARK  167  A    between atoms: _383  and  _384
REMARK  168  A    between atoms: _383  and  _386
REMARK  169  A    between atoms: _389  and  _391
REMARK  170  A    between atoms: _391  and  _392
REMARK  171  A    between atoms: _395  and  _397
REMARK  172  A    between atoms: _397  and  _398
REMARK  173  A    between atoms: _401  and  _403
REMARK  174  A    between atoms: _403  and  _404
REMARK  175  A    between atoms: _403  and  _406
REMARK  176  A    between atoms: _406  and  _407
REMARK  177  A    between atoms: _410  and  _412
REMARK  178  A    between atoms: _412  and  _413
REMARK  179  A    between atoms: _412  and  _415
REMARK  180  A    between atoms: _415  and  _416
REMARK  181  A    between atoms: _416  and  _417
REMARK  182  A    between atoms: _422  and  _424
REMARK  183  A    between atoms: _424  and  _425
REMARK  184  A    between atoms: _424  and  _427
REMARK  185  A    between atoms: _430  and  _432
REMARK  186  A    between atoms: _432  and  _433
REMARK  187  A    between atoms: _432  and  _435
REMARK  188  A    between atoms: _435  and  _436
REMARK  189  A    between atoms: _436  and  _437
REMARK  190  A    between atoms: _437  and  _438
REMARK  191  A    between atoms: _447  and  _449
REMARK  192  A    between atoms: _449  and  _450
REMARK  193  A    between atoms: _449  and  _452
REMARK  194  A    between atoms: _452  and  _453
REMARK  195  A    between atoms: _456  and  _458
REMARK  196  A    between atoms: _458  and  _459
REMARK  197  A    between atoms: _462  and  _464
REMARK  198  A    between atoms: _464  and  _465
REMARK  199  A    between atoms: _464  and  _467
REMARK                            x       y       z     vdW  Elec       q    Type
REMARK                         _______ _______ _______ _____ _____    ______ ____
ROOT
ATOM      1  O   HOH     1     -17.483  -4.446  16.243  0.00  0.00    +0.000 OA
ENDROOT
TORSDOF 0
REMARK  Name = ../refined-set-2016/4ozj/4ozj_pocket.pdb
REMARK  199 active torsions:
REMARK  status: ('A' for Active; 'I' for Inactive)
REMARK    1  A    between atoms: _1  and  _3
REMARK    2  A    between atoms: _3  and  _4
REMARK    3  A    between atoms: _3  and  _6
REMARK    4  A    between atoms: _6  and  _7
REMARK    5  A    between atoms: _7  and  _8
REMARK    6  A    between atoms: _10  and  _12
REMARK    7  A    between atoms: _12  and  _13
REMARK    8  A    between atoms: _16  and  _18
REMARK    9  A    between atoms: _18  and  _19
REMARK   10  A    between atoms: _18  and  _21
REMARK   11  A    between atoms: _21  and  _22
REMARK   12  A    between atoms: _25  and  _27
REMARK   13  A    between atoms: _27  and  _28
REMARK   14  A    between atoms: _27  and  _30
REMARK   15  A    between atoms: _30  and  _31
REMARK   16  A    between atoms: _34  and  _36
REMARK   17  A    between atoms: _36  and  _37
REMARK   18  A    between atoms: _36  and  _39
REMARK   19  A    between atoms: _39  and  _40
REMARK   20  A    between atoms: _40  and  _41
REMARK   21  A    between atoms: _41  and  _42
REMARK   22  A    between atoms: _51  and  _53
REMARK   23  A    between atoms: _53  and  _54
REMARK   24  A    between atoms: _53  and  _56
REMARK   25  A    between atoms: _59  and  _61
REMARK   26  A    between atoms: _61  and  _62
REMARK   27  A    between atoms: _61  and  _64
REMARK   28  A    between atoms: _64  and  _65
REMARK   29  A    between atoms: _67  and  _69
REMARK   30  A    between atoms: _69  and  _70
REMARK   31  A    between atoms: _72  and  _74
REMARK   32  A    between atoms: _74  and  _75
REMARK   33  A    between atoms: _74  and  _77
REMARK   34  A    between atoms: _77  and  _78
REMARK   35  A    between atoms: _78  and  _79
REMARK   36  A    between atoms: _79  and  _80
REMARK   37  A    between atoms: _89  and  _91
REMARK   38  A    between atoms: _91  and  _92
REMARK   39  A    between atoms: _94  and  _96
REMARK   40  A    between atoms: _96  and  _97
REMARK   41  A    between atoms: _96  and  _99
REMARK   42  A    between atoms: _99  and  _100
REMARK   43  A    between atoms: _102  and  _104
REMARK   44  A    between atoms: _104  and  _105
REMARK   45  A    between atoms: _104  and  _107
REMARK   46  A    between atoms: _107  and  _108
REMARK   47  A    between atoms: _111  and  _113
REMARK   48  A    between atoms: _113  and  _114
REMARK   49  A    between atoms: _113  and  _116
REMARK   50  A    between atoms: _116  and  _117
REMARK   51  A    between atoms: _120  and  _122
REMARK   52  A    between atoms: _122  and  _123
REMARK   53  A    between atoms: _122  and  _125
REMARK   54  A    between atoms: _125  and  _126
REMARK   55  A    between atoms: _131  and  _133
REMARK   56  A    between atoms: _133  and  _134
REMARK   57  A    between atoms: _133  and  _136
REMARK   58  A    between atoms: _136  and  _137
REMARK   59  A    between atoms: _137  and  _138
REMARK   60  A    between atoms: _143  and  _145
REMARK   61  A    between atoms: _145  and  _146
REMARK   62  A    between atoms: _145  and  _148
REMARK   63  A    between atoms: _148  and  _149
REMARK   64  A    between atoms: _149  and  _150
REMARK   65  A    between atoms: _150  and  _151
REMARK   66  A    between atoms: _151  and  _152
REMARK   67  A    between atoms: _156  and  _158
REMARK   68  A    between atoms: _158  and  _159
REMARK   69  A    between atoms: _158  and  _161
REMARK   70  A    between atoms: _164  and  _166
REMARK   71  A    between atoms: _166  and  _167
REMARK   72  A    between atoms: _166  and  _169
REMARK   73  A    between atoms: _169  and  _170
REMARK   74  A    between atoms: _170  and  _171
REMARK   75  A    between atoms: _171  and  _172
REMARK   76  A    between atoms: _172  and  _173
REMARK   77  A    between atoms: _177  and  _179
REMARK   78  A    between atoms: _179  and  _180
REMARK   79  A    between atoms: _179  and  _182
REMARK   80  A    between atoms: _182  and  _183
REMARK   81  A    between atoms: _186  and  _188
REMARK   82  A    between atoms: _188  and  _189
REMARK   83  A    between atoms: _188  and  _191
REMARK   84  A    between atoms: _191  and  _192
REMARK   85  A    between atoms: _192  and  _193
REMARK   86  A    between atoms: _196  and  _198
REMARK   87  A    between atoms: _198  and  _199
REMARK   88  A    between atoms: _198  and  _201
REMARK   89  A    between atoms: _201  and  _202
REMARK   90  A    between atoms: _202  and  _203
REMARK   91  A    between atoms: _203  and  _204
REMARK   92  A    between atoms: _204  and  _205
REMARK   93  A    between atoms: _209  and  _211
REMARK   94  A    between atoms: _211  and  _212
REMARK   95  A    between atoms: _214  and  _216
REMARK   96  A    between atoms: _216  and  _217
REMARK   97  A    between atoms: _216  and  _219
REMARK   98  A    between atoms: _219  and  _220
REMARK   99  A    between atoms: _223  and  _225
REMARK  100  A    between atoms: _225  and  _226
REMARK  101  A    between atoms: _228  and  _230
REMARK  102  A    between atoms: _230  and  _231
REMARK  103  A    between atoms: _230  and  _233
REMARK  104  A    between atoms: _233  and  _234
REMARK  105  A    between atoms: _234  and  _235
REMARK  106  A    between atoms: _235  and  _236
REMARK  107  A    between atoms: _236  and  _237
REMARK  108  A    between atoms: _241  and  _243
REMARK  109  A    between atoms: _243  and  _244
REMARK  110  A    between atoms: _243  and  _246
REMARK  111  A    between atoms: _246  and  _247
REMARK  112  A    between atoms: _250  and  _252
REMARK  113  A    between atoms: _252  and  _253
REMARK  114  A    between atoms: _252  and  _255
REMARK  115  A    between atoms: _255  and  _256
REMARK  116  A    between atoms: _262  and  _264
REMARK  117  A    between atoms: _264  and  _265
REMARK  118  A    between atoms: _264  and  _267
REMARK  119  A    between atoms: _267  and  _268
REMARK  120  A    between atoms: _271  and  _273
REMARK  121  A    between atoms: _273  and  _274
REMARK  122  A    between atoms: _273  and  _276
REMARK  123  A    between atoms: _276  and  _277
REMARK  124  A    between atoms: _277  and  _278
REMARK  125  A    between atoms: _278  and  _279
REMARK  126  A    between atoms: _279  and  _280
REMARK  127  A    between atoms: _284  and  _286
REMARK  128  A    between atoms: _286  and  _287
REMARK  129  A    between atoms: _286  and  _289
REMARK  130  A    between atoms: _289  and  _290
REMARK  131  A    between atoms: _293  and  _295
REMARK  132  A    between atoms: _295  and  _296
REMARK  133  A    between atoms: _295  and  _298
REMARK  134  A    between atoms: _301  and  _303
REMARK  135  A    between atoms: _303  and  _304
REMARK  136  A    between atoms: _308  and  _309
REMARK  137  A    between atoms: _314  and  _316
REMARK  138  A    between atoms: _316  and  _317
REMARK  139  A    between atoms: _316  and  _319
REMARK  140  A    between atoms: _319  and  _320
REMARK  141  A    between atoms: _322  and  _324
REMARK  142  A    between atoms: _324  and  _325
REMARK  143  A    between atoms: _324  and  _327
REMARK  144  A    between atoms: _327  and  _328
REMARK  145  A    between atoms: _331  and  _333
REMARK  146  A    between atoms: _333  and  _334
REMARK  147  A    between atoms: _333  and  _336
REMARK  148  A    between atoms: _336  and  _337
REMARK  149  A    between atoms: _340  and  _342
REMARK  150  A    between atoms: _342  and  _343
REMARK  151  A    between atoms: _342  and  _345
REMARK  152  A    between atoms: _348  and  _350
REMARK  153  A    between atoms: _350  and  _351
REMARK  154  A    between atoms: _350  and  _353
REMARK  155  A    between atoms: _356  and  _358
REMARK  156  A    between atoms: _358  and  _359
REMARK  157  A    between atoms: _358  and  _361
REMARK  158  A    between atoms: _361  and  _362
REMARK  159  A    between atoms: _362  and  _363
REMARK  160  A    between atoms: _366  and  _368
REMARK  161  A    between atoms: _368  and  _369
REMARK  162  A    between atoms: _368  and  _371
REMARK  163  A    between atoms: _373  and  _375
REMARK  164  A    between atoms: _375  and  _376
REMARK  165  A    between atoms: _375  and  _378
REMARK  166  A    between atoms: _381  and  _383
REMARK  167  A    between atoms: _383  and  _384
REMARK  168  A    between atoms: _383  and  _386
REMARK  169  A    between atoms: _389  and  _391
REMARK  170  A    between atoms: _391  and  _392
REMARK  171  A    between atoms: _395  and  _397
REMARK  172  A    between atoms: _397  and  _398
REMARK  173  A    between atoms: _401  and  _403
REMARK  174  A    between atoms: _403  and  _404
REMARK  175  A    between atoms: _403  and  _406
REMARK  176  A    between atoms: _406  and  _407
REMARK  177  A    between atoms: _410  and  _412
REMARK  178  A    between atoms: _412  and  _413
REMARK  179  A    between atoms: _412  and  _415
REMARK  180  A    between atoms: _415  and  _416
REMARK  181  A    between atoms: _416  and  _417
REMARK  182  A    between atoms: _422  and  _424
REMARK  183  A    between atoms: _424  and  _425
REMARK  184  A    between atoms: _424  and  _427
REMARK  185  A    between atoms: _430  and  _432
REMARK  186  A    between atoms: _432  and  _433
REMARK  187  A    between atoms: _432  and  _435
REMARK  188  A    between atoms: _435  and  _436
REMARK  189  A    between atoms: _436  and  _437
REMARK  190  A    between atoms: _437  and  _438
REMARK  191  A    between atoms: _447  and  _449
REMARK  192  A    between atoms: _449  and  _450
REMARK  193  A    between atoms: _449  and  _452
REMARK  194  A    between atoms: _452  and  _453
REMARK  195  A    between atoms: _456  and  _458
REMARK  196  A    between atoms: _458  and  _459
REMARK  197  A    between atoms: _462  and  _464
REMARK  198  A    between atoms: _464  and  _465
REMARK  199  A    between atoms: _464  and  _467
REMARK                            x       y       z     vdW  Elec       q    Type
REMARK                         _______ _______ _______ _____ _____    ______ ____
ROOT
ATOM      1  O   HOH     1     -21.454   4.902  13.271  0.00  0.00    +0.000 OA
ENDROOT
TORSDOF 0
REMARK  Name = ../refined-set-2016/4ozj/4ozj_pocket.pdb
REMARK  199 active torsions:
REMARK  status: ('A' for Active; 'I' for Inactive)
REMARK    1  A    between atoms: _1  and  _3
REMARK    2  A    between atoms: _3  and  _4
REMARK    3  A    between atoms: _3  and  _6
REMARK    4  A    between atoms: _6  and  _7
REMARK    5  A    between atoms: _7  and  _8
REMARK    6  A    between atoms: _10  and  _12
REMARK    7  A    between atoms: _12  and  _13
REMARK    8  A    between atoms: _16  and  _18
REMARK    9  A    between atoms: _18  and  _19
REMARK   10  A    between atoms: _18  and  _21
REMARK   11  A    between atoms: _21  and  _22
REMARK   12  A    between atoms: _25  and  _27
REMARK   13  A    between atoms: _27  and  _28
REMARK   14  A    between atoms: _27  and  _30
REMARK   15  A    between atoms: _30  and  _31
REMARK   16  A    between atoms: _34  and  _36
REMARK   17  A    between atoms: _36  and  _37
REMARK   18  A    between atoms: _36  and  _39
REMARK   19  A    between atoms: _39  and  _40
REMARK   20  A    between atoms: _40  and  _41
REMARK   21  A    between atoms: _41  and  _42
REMARK   22  A    between atoms: _51  and  _53
REMARK   23  A    between atoms: _53  and  _54
REMARK   24  A    between atoms: _53  and  _56
REMARK   25  A    between atoms: _59  and  _61
REMARK   26  A    between atoms: _61  and  _62
REMARK   27  A    between atoms: _61  and  _64
REMARK   28  A    between atoms: _64  and  _65
REMARK   29  A    between atoms: _67  and  _69
REMARK   30  A    between atoms: _69  and  _70
REMARK   31  A    between atoms: _72  and  _74
REMARK   32  A    between atoms: _74  and  _75
REMARK   33  A    between atoms: _74  and  _77
REMARK   34  A    between atoms: _77  and  _78
REMARK   35  A    between atoms: _78  and  _79
REMARK   36  A    between atoms: _79  and  _80
REMARK   37  A    between atoms: _89  and  _91
REMARK   38  A    between atoms: _91  and  _92
REMARK   39  A    between atoms: _94  and  _96
REMARK   40  A    between atoms: _96  and  _97
REMARK   41  A    between atoms: _96  and  _99
REMARK   42  A    between atoms: _99  and  _100
REMARK   43  A    between atoms: _102  and  _104
REMARK   44  A    between atoms: _104  and  _105
REMARK   45  A    between atoms: _104  and  _107
REMARK   46  A    between atoms: _107  and  _108
REMARK   47  A    between atoms: _111  and  _113
REMARK   48  A    between atoms: _113  and  _114
REMARK   49  A    between atoms: _113  and  _116
REMARK   50  A    between atoms: _116  and  _117
REMARK   51  A    between atoms: _120  and  _122
REMARK   52  A    between atoms: _122  and  _123
REMARK   53  A    between atoms: _122  and  _125
REMARK   54  A    between atoms: _125  and  _126
REMARK   55  A    between atoms: _131  and  _133
REMARK   56  A    between atoms: _133  and  _134
REMARK   57  A    between atoms: _133  and  _136
REMARK   58  A    between atoms: _136  and  _137
REMARK   59  A    between atoms: _137  and  _138
REMARK   60  A    between atoms: _143  and  _145
REMARK   61  A    between atoms: _145  and  _146
REMARK   62  A    between atoms: _145  and  _148
REMARK   63  A    between atoms: _148  and  _149
REMARK   64  A    between atoms: _149  and  _150
REMARK   65  A    between atoms: _150  and  _151
REMARK   66  A    between atoms: _151  and  _152
REMARK   67  A    between atoms: _156  and  _158
REMARK   68  A    between atoms: _158  and  _159
REMARK   69  A    between atoms: _158  and  _161
REMARK   70  A    between atoms: _164  and  _166
REMARK   71  A    between atoms: _166  and  _167
REMARK   72  A    between atoms: _166  and  _169
REMARK   73  A    between atoms: _169  and  _170
REMARK   74  A    between atoms: _170  and  _171
REMARK   75  A    between atoms: _171  and  _172
REMARK   76  A    between atoms: _172  and  _173
REMARK   77  A    between atoms: _177  and  _179
REMARK   78  A    between atoms: _179  and  _180
REMARK   79  A    between atoms: _179  and  _182
REMARK   80  A    between atoms: _182  and  _183
REMARK   81  A    between atoms: _186  and  _188
REMARK   82  A    between atoms: _188  and  _189
REMARK   83  A    between atoms: _188  and  _191
REMARK   84  A    between atoms: _191  and  _192
REMARK   85  A    between atoms: _192  and  _193
REMARK   86  A    between atoms: _196  and  _198
REMARK   87  A    between atoms: _198  and  _199
REMARK   88  A    between atoms: _198  and  _201
REMARK   89  A    between atoms: _201  and  _202
REMARK   90  A    between atoms: _202  and  _203
REMARK   91  A    between atoms: _203  and  _204
REMARK   92  A    between atoms: _204  and  _205
REMARK   93  A    between atoms: _209  and  _211
REMARK   94  A    between atoms: _211  and  _212
REMARK   95  A    between atoms: _214  and  _216
REMARK   96  A    between atoms: _216  and  _217
REMARK   97  A    between atoms: _216  and  _219
REMARK   98  A    between atoms: _219  and  _220
REMARK   99  A    between atoms: _223  and  _225
REMARK  100  A    between atoms: _225  and  _226
REMARK  101  A    between atoms: _228  and  _230
REMARK  102  A    between atoms: _230  and  _231
REMARK  103  A    between atoms: _230  and  _233
REMARK  104  A    between atoms: _233  and  _234
REMARK  105  A    between atoms: _234  and  _235
REMARK  106  A    between atoms: _235  and  _236
REMARK  107  A    between atoms: _236  and  _237
REMARK  108  A    between atoms: _241  and  _243
REMARK  109  A    between atoms: _243  and  _244
REMARK  110  A    between atoms: _243  and  _246
REMARK  111  A    between atoms: _246  and  _247
REMARK  112  A    between atoms: _250  and  _252
REMARK  113  A    between atoms: _252  and  _253
REMARK  114  A    between atoms: _252  and  _255
REMARK  115  A    between atoms: _255  and  _256
REMARK  116  A    between atoms: _262  and  _264
REMARK  117  A    between atoms: _264  and  _265
REMARK  118  A    between atoms: _264  and  _267
REMARK  119  A    between atoms: _267  and  _268
REMARK  120  A    between atoms: _271  and  _273
REMARK  121  A    between atoms: _273  and  _274
REMARK  122  A    between atoms: _273  and  _276
REMARK  123  A    between atoms: _276  and  _277
REMARK  124  A    between atoms: _277  and  _278
REMARK  125  A    between atoms: _278  and  _279
REMARK  126  A    between atoms: _279  and  _280
REMARK  127  A    between atoms: _284  and  _286
REMARK  128  A    between atoms: _286  and  _287
REMARK  129  A    between atoms: _286  and  _289
REMARK  130  A    between atoms: _289  and  _290
REMARK  131  A    between atoms: _293  and  _295
REMARK  132  A    between atoms: _295  and  _296
REMARK  133  A    between atoms: _295  and  _298
REMARK  134  A    between atoms: _301  and  _303
REMARK  135  A    between atoms: _303  and  _304
REMARK  136  A    between atoms: _308  and  _309
REMARK  137  A    between atoms: _314  and  _316
REMARK  138  A    between atoms: _316  and  _317
REMARK  139  A    between atoms: _316  and  _319
REMARK  140  A    between atoms: _319  and  _320
REMARK  141  A    between atoms: _322  and  _324
REMARK  142  A    between atoms: _324  and  _325
REMARK  143  A    between atoms: _324  and  _327
REMARK  144  A    between atoms: _327  and  _328
REMARK  145  A    between atoms: _331  and  _333
REMARK  146  A    between atoms: _333  and  _334
REMARK  147  A    between atoms: _333  and  _336
REMARK  148  A    between atoms: _336  and  _337
REMARK  149  A    between atoms: _340  and  _342
REMARK  150  A    between atoms: _342  and  _343
REMARK  151  A    between atoms: _342  and  _345
REMARK  152  A    between atoms: _348  and  _350
REMARK  153  A    between atoms: _350  and  _351
REMARK  154  A    between atoms: _350  and  _353
REMARK  155  A    between atoms: _356  and  _358
REMARK  156  A    between atoms: _358  and  _359
REMARK  157  A    between atoms: _358  and  _361
REMARK  158  A    between atoms: _361  and  _362
REMARK  159  A    between atoms: _362  and  _363
REMARK  160  A    between atoms: _366  and  _368
REMARK  161  A    between atoms: _368  and  _369
REMARK  162  A    between atoms: _368  and  _371
REMARK  163  A    between atoms: _373  and  _375
REMARK  164  A    between atoms: _375  and  _376
REMARK  165  A    between atoms: _375  and  _378
REMARK  166  A    between atoms: _381  and  _383
REMARK  167  A    between atoms: _383  and  _384
REMARK  168  A    between atoms: _383  and  _386
REMARK  169  A    between atoms: _389  and  _391
REMARK  170  A    between atoms: _391  and  _392
REMARK  171  A    between atoms: _395  and  _397
REMARK  172  A    between atoms: _397  and  _398
REMARK  173  A    between atoms: _401  and  _403
REMARK  174  A    between atoms: _403  and  _404
REMARK  175  A    between atoms: _403  and  _406
REMARK  176  A    between atoms: _406  and  _407
REMARK  177  A    between atoms: _410  and  _412
REMARK  178  A    between atoms: _412  and  _413
REMARK  179  A    between atoms: _412  and  _415
REMARK  180  A    between atoms: _415  and  _416
REMARK  181  A    between atoms: _416  and  _417
REMARK  182  A    between atoms: _422  and  _424
REMARK  183  A    between atoms: _424  and  _425
REMARK  184  A    between atoms: _424  and  _427
REMARK  185  A    between atoms: _430  and  _432
REMARK  186  A    between atoms: _432  and  _433
REMARK  187  A    between atoms: _432  and  _435
REMARK  188  A    between atoms: _435  and  _436
REMARK  189  A    between atoms: _436  and  _437
REMARK  190  A    between atoms: _437  and  _438
REMARK  191  A    between atoms: _447  and  _449
REMARK  192  A    between atoms: _449  and  _450
REMARK  193  A    between atoms: _449  and  _452
REMARK  194  A    between atoms: _452  and  _453
REMARK  195  A    between atoms: _456  and  _458
REMARK  196  A    between atoms: _458  and  _459
REMARK  197  A    between atoms: _462  and  _464
REMARK  198  A    between atoms: _464  and  _465
REMARK  199  A    between atoms: _464  and  _467
REMARK                            x       y       z     vdW  Elec       q    Type
REMARK                         _______ _______ _______ _____ _____    ______ ____
ROOT
ATOM      1  O   HOH     1     -17.250  -2.857  22.219  0.00  0.00    +0.000 OA
ENDROOT
TORSDOF 0
REMARK  Name = ../refined-set-2016/4ozj/4ozj_pocket.pdb
REMARK  199 active torsions:
REMARK  status: ('A' for Active; 'I' for Inactive)
REMARK    1  A    between atoms: _1  and  _3
REMARK    2  A    between atoms: _3  and  _4
REMARK    3  A    between atoms: _3  and  _6
REMARK    4  A    between atoms: _6  and  _7
REMARK    5  A    between atoms: _7  and  _8
REMARK    6  A    between atoms: _10  and  _12
REMARK    7  A    between atoms: _12  and  _13
REMARK    8  A    between atoms: _16  and  _18
REMARK    9  A    between atoms: _18  and  _19
REMARK   10  A    between atoms: _18  and  _21
REMARK   11  A    between atoms: _21  and  _22
REMARK   12  A    between atoms: _25  and  _27
REMARK   13  A    between atoms: _27  and  _28
REMARK   14  A    between atoms: _27  and  _30
REMARK   15  A    between atoms: _30  and  _31
REMARK   16  A    between atoms: _34  and  _36
REMARK   17  A    between atoms: _36  and  _37
REMARK   18  A    between atoms: _36  and  _39
REMARK   19  A    between atoms: _39  and  _40
REMARK   20  A    between atoms: _40  and  _41
REMARK   21  A    between atoms: _41  and  _42
REMARK   22  A    between atoms: _51  and  _53
REMARK   23  A    between atoms: _53  and  _54
REMARK   24  A    between atoms: _53  and  _56
REMARK   25  A    between atoms: _59  and  _61
REMARK   26  A    between atoms: _61  and  _62
REMARK   27  A    between atoms: _61  and  _64
REMARK   28  A    between atoms: _64  and  _65
REMARK   29  A    between atoms: _67  and  _69
REMARK   30  A    between atoms: _69  and  _70
REMARK   31  A    between atoms: _72  and  _74
REMARK   32  A    between atoms: _74  and  _75
REMARK   33  A    between atoms: _74  and  _77
REMARK   34  A    between atoms: _77  and  _78
REMARK   35  A    between atoms: _78  and  _79
REMARK   36  A    between atoms: _79  and  _80
REMARK   37  A    between atoms: _89  and  _91
REMARK   38  A    between atoms: _91  and  _92
REMARK   39  A    between atoms: _94  and  _96
REMARK   40  A    between atoms: _96  and  _97
REMARK   41  A    between atoms: _96  and  _99
REMARK   42  A    between atoms: _99  and  _100
REMARK   43  A    between atoms: _102  and  _104
REMARK   44  A    between atoms: _104  and  _105
REMARK   45  A    between atoms: _104  and  _107
REMARK   46  A    between atoms: _107  and  _108
REMARK   47  A    between atoms: _111  and  _113
REMARK   48  A    between atoms: _113  and  _114
REMARK   49  A    between atoms: _113  and  _116
REMARK   50  A    between atoms: _116  and  _117
REMARK   51  A    between atoms: _120  and  _122
REMARK   52  A    between atoms: _122  and  _123
REMARK   53  A    between atoms: _122  and  _125
REMARK   54  A    between atoms: _125  and  _126
REMARK   55  A    between atoms: _131  and  _133
REMARK   56  A    between atoms: _133  and  _134
REMARK   57  A    between atoms: _133  and  _136
REMARK   58  A    between atoms: _136  and  _137
REMARK   59  A    between atoms: _137  and  _138
REMARK   60  A    between atoms: _143  and  _145
REMARK   61  A    between atoms: _145  and  _146
REMARK   62  A    between atoms: _145  and  _148
REMARK   63  A    between atoms: _148  and  _149
REMARK   64  A    between atoms: _149  and  _150
REMARK   65  A    between atoms: _150  and  _151
REMARK   66  A    between atoms: _151  and  _152
REMARK   67  A    between atoms: _156  and  _158
REMARK   68  A    between atoms: _158  and  _159
REMARK   69  A    between atoms: _158  and  _161
REMARK   70  A    between atoms: _164  and  _166
REMARK   71  A    between atoms: _166  and  _167
REMARK   72  A    between atoms: _166  and  _169
REMARK   73  A    between atoms: _169  and  _170
REMARK   74  A    between atoms: _170  and  _171
REMARK   75  A    between atoms: _171  and  _172
REMARK   76  A    between atoms: _172  and  _173
REMARK   77  A    between atoms: _177  and  _179
REMARK   78  A    between atoms: _179  and  _180
REMARK   79  A    between atoms: _179  and  _182
REMARK   80  A    between atoms: _182  and  _183
REMARK   81  A    between atoms: _186  and  _188
REMARK   82  A    between atoms: _188  and  _189
REMARK   83  A    between atoms: _188  and  _191
REMARK   84  A    between atoms: _191  and  _192
REMARK   85  A    between atoms: _192  and  _193
REMARK   86  A    between atoms: _196  and  _198
REMARK   87  A    between atoms: _198  and  _199
REMARK   88  A    between atoms: _198  and  _201
REMARK   89  A    between atoms: _201  and  _202
REMARK   90  A    between atoms: _202  and  _203
REMARK   91  A    between atoms: _203  and  _204
REMARK   92  A    between atoms: _204  and  _205
REMARK   93  A    between atoms: _209  and  _211
REMARK   94  A    between atoms: _211  and  _212
REMARK   95  A    between atoms: _214  and  _216
REMARK   96  A    between atoms: _216  and  _217
REMARK   97  A    between atoms: _216  and  _219
REMARK   98  A    between atoms: _219  and  _220
REMARK   99  A    between atoms: _223  and  _225
REMARK  100  A    between atoms: _225  and  _226
REMARK  101  A    between atoms: _228  and  _230
REMARK  102  A    between atoms: _230  and  _231
REMARK  103  A    between atoms: _230  and  _233
REMARK  104  A    between atoms: _233  and  _234
REMARK  105  A    between atoms: _234  and  _235
REMARK  106  A    between atoms: _235  and  _236
REMARK  107  A    between atoms: _236  and  _237
REMARK  108  A    between atoms: _241  and  _243
REMARK  109  A    between atoms: _243  and  _244
REMARK  110  A    between atoms: _243  and  _246
REMARK  111  A    between atoms: _246  and  _247
REMARK  112  A    between atoms: _250  and  _252
REMARK  113  A    between atoms: _252  and  _253
REMARK  114  A    between atoms: _252  and  _255
REMARK  115  A    between atoms: _255  and  _256
REMARK  116  A    between atoms: _262  and  _264
REMARK  117  A    between atoms: _264  and  _265
REMARK  118  A    between atoms: _264  and  _267
REMARK  119  A    between atoms: _267  and  _268
REMARK  120  A    between atoms: _271  and  _273
REMARK  121  A    between atoms: _273  and  _274
REMARK  122  A    between atoms: _273  and  _276
REMARK  123  A    between atoms: _276  and  _277
REMARK  124  A    between atoms: _277  and  _278
REMARK  125  A    between atoms: _278  and  _279
REMARK  126  A    between atoms: _279  and  _280
REMARK  127  A    between atoms: _284  and  _286
REMARK  128  A    between atoms: _286  and  _287
REMARK  129  A    between atoms: _286  and  _289
REMARK  130  A    between atoms: _289  and  _290
REMARK  131  A    between atoms: _293  and  _295
REMARK  132  A    between atoms: _295  and  _296
REMARK  133  A    between atoms: _295  and  _298
REMARK  134  A    between atoms: _301  and  _303
REMARK  135  A    between atoms: _303  and  _304
REMARK  136  A    between atoms: _308  and  _309
REMARK  137  A    between atoms: _314  and  _316
REMARK  138  A    between atoms: _316  and  _317
REMARK  139  A    between atoms: _316  and  _319
REMARK  140  A    between atoms: _319  and  _320
REMARK  141  A    between atoms: _322  and  _324
REMARK  142  A    between atoms: _324  and  _325
REMARK  143  A    between atoms: _324  and  _327
REMARK  144  A    between atoms: _327  and  _328
REMARK  145  A    between atoms: _331  and  _333
REMARK  146  A    between atoms: _333  and  _334
REMARK  147  A    between atoms: _333  and  _336
REMARK  148  A    between atoms: _336  and  _337
REMARK  149  A    between atoms: _340  and  _342
REMARK  150  A    between atoms: _342  and  _343
REMARK  151  A    between atoms: _342  and  _345
REMARK  152  A    between atoms: _348  and  _350
REMARK  153  A    between atoms: _350  and  _351
REMARK  154  A    between atoms: _350  and  _353
REMARK  155  A    between atoms: _356  and  _358
REMARK  156  A    between atoms: _358  and  _359
REMARK  157  A    between atoms: _358  and  _361
REMARK  158  A    between atoms: _361  and  _362
REMARK  159  A    between atoms: _362  and  _363
REMARK  160  A    between atoms: _366  and  _368
REMARK  161  A    between atoms: _368  and  _369
REMARK  162  A    between atoms: _368  and  _371
REMARK  163  A    between atoms: _373  and  _375
REMARK  164  A    between atoms: _375  and  _376
REMARK  165  A    between atoms: _375  and  _378
REMARK  166  A    between atoms: _381  and  _383
REMARK  167  A    between atoms: _383  and  _384
REMARK  168  A    between atoms: _383  and  _386
REMARK  169  A    between atoms: _389  and  _391
REMARK  170  A    between atoms: _391  and  _392
REMARK  171  A    between atoms: _395  and  _397
REMARK  172  A    between atoms: _397  and  _398
REMARK  173  A    between atoms: _401  and  _403
REMARK  174  A    between atoms: _403  and  _404
REMARK  175  A    between atoms: _403  and  _406
REMARK  176  A    between atoms: _406  and  _407
REMARK  177  A    between atoms: _410  and  _412
REMARK  178  A    between atoms: _412  and  _413
REMARK  179  A    between atoms: _412  and  _415
REMARK  180  A    between atoms: _415  and  _416
REMARK  181  A    between atoms: _416  and  _417
REMARK  182  A    between atoms: _422  and  _424
REMARK  183  A    between atoms: _424  and  _425
REMARK  184  A    between atoms: _424  and  _427
REMARK  185  A    between atoms: _430  and  _432
REMARK  186  A    between atoms: _432  and  _433
REMARK  187  A    between atoms: _432  and  _435
REMARK  188  A    between atoms: _435  and  _436
REMARK  189  A    between atoms: _436  and  _437
REMARK  190  A    between atoms: _437  and  _438
REMARK  191  A    between atoms: _447  and  _449
REMARK  192  A    between atoms: _449  and  _450
REMARK  193  A    between atoms: _449  and  _452
REMARK  194  A    between atoms: _452  and  _453
REMARK  195  A    between atoms: _456  and  _458
REMARK  196  A    between atoms: _458  and  _459
REMARK  197  A    between atoms: _462  and  _464
REMARK  198  A    between atoms: _464  and  _465
REMARK  199  A    between atoms: _464  and  _467
REMARK                            x       y       z     vdW  Elec       q    Type
REMARK                         _______ _______ _______ _____ _____    ______ ____
ROOT
ATOM      1  O   HOH     1     -16.042  -5.349  21.166  0.00  0.00    +0.000 OA
ENDROOT
TORSDOF 0
