REMARK  Name = ../refined-set-2016/3qdd/3qdd_pocket.pdb
REMARK  215 active torsions:
REMARK  status: ('A' for Active; 'I' for Inactive)
REMARK    1  A    between atoms: _1  and  _3
REMARK    2  A    between atoms: _3  and  _4
REMARK    3  A    between atoms: _3  and  _6
REMARK    4  A    between atoms: _6  and  _7
REMARK    5  A    between atoms: _13  and  _15
REMARK    6  A    between atoms: _15  and  _16
REMARK    7  A    between atoms: _15  and  _18
REMARK    8  A    between atoms: _18  and  _19
REMARK    9  A    between atoms: _22  and  _24
REMARK   10  A    between atoms: _24  and  _25
REMARK   11  A    between atoms: _24  and  _27
REMARK   12  A    between atoms: _27  and  _28
REMARK   13  A    between atoms: _28  and  _29
REMARK   14  A    between atoms: _31  and  _33
REMARK   15  A    between atoms: _33  and  _34
REMARK   16  A    between atoms: _33  and  _36
REMARK   17  A    between atoms: _36  and  _37
REMARK   18  A    between atoms: _37  and  _38
REMARK   19  A    between atoms: _41  and  _43
REMARK   20  A    between atoms: _43  and  _44
REMARK   21  A    between atoms: _43  and  _46
REMARK   22  A    between atoms: _46  and  _47
REMARK   23  A    between atoms: _50  and  _52
REMARK   24  A    between atoms: _52  and  _53
REMARK   25  A    between atoms: _52  and  _55
REMARK   26  A    between atoms: _55  and  _56
REMARK   27  A    between atoms: _59  and  _61
REMARK   28  A    between atoms: _61  and  _62
REMARK   29  A    between atoms: _61  and  _64
REMARK   30  A    between atoms: _64  and  _65
REMARK   31  A    between atoms: _67  and  _69
REMARK   32  A    between atoms: _69  and  _70
REMARK   33  A    between atoms: _69  and  _72
REMARK   34  A    between atoms: _72  and  _73
REMARK   35  A    between atoms: _78  and  _80
REMARK   36  A    between atoms: _80  and  _81
REMARK   37  A    between atoms: _80  and  _83
REMARK   38  A    between atoms: _83  and  _84
REMARK   39  A    between atoms: _86  and  _88
REMARK   40  A    between atoms: _88  and  _89
REMARK   41  A    between atoms: _88  and  _91
REMARK   42  A    between atoms: _91  and  _92
REMARK   43  A    between atoms: _94  and  _96
REMARK   44  A    between atoms: _96  and  _97
REMARK   45  A    between atoms: _96  and  _99
REMARK   46  A    between atoms: _99  and  _100
REMARK   47  A    between atoms: _103  and  _105
REMARK   48  A    between atoms: _105  and  _106
REMARK   49  A    between atoms: _109  and  _111
REMARK   50  A    between atoms: _111  and  _112
REMARK   51  A    between atoms: _111  and  _114
REMARK   52  A    between atoms: _114  and  _115
REMARK   53  A    between atoms: _118  and  _120
REMARK   54  A    between atoms: _120  and  _121
REMARK   55  A    between atoms: _120  and  _123
REMARK   56  A    between atoms: _123  and  _124
REMARK   57  A    between atoms: _124  and  _125
REMARK   58  A    between atoms: _125  and  _126
REMARK   59  A    between atoms: _126  and  _127
REMARK   60  A    between atoms: _131  and  _133
REMARK   61  A    between atoms: _133  and  _134
REMARK   62  A    between atoms: _133  and  _136
REMARK   63  A    between atoms: _136  and  _137
REMARK   64  A    between atoms: _140  and  _142
REMARK   65  A    between atoms: _142  and  _143
REMARK   66  A    between atoms: _142  and  _145
REMARK   67  A    between atoms: _145  and  _146
REMARK   68  A    between atoms: _149  and  _151
REMARK   69  A    between atoms: _151  and  _152
REMARK   70  A    between atoms: _151  and  _154
REMARK   71  A    between atoms: _157  and  _159
REMARK   72  A    between atoms: _159  and  _160
REMARK   73  A    between atoms: _159  and  _162
REMARK   74  A    between atoms: _162  and  _163
REMARK   75  A    between atoms: _166  and  _168
REMARK   76  A    between atoms: _168  and  _169
REMARK   77  A    between atoms: _168  and  _171
REMARK   78  A    between atoms: _171  and  _172
REMARK   79  A    between atoms: _175  and  _177
REMARK   80  A    between atoms: _177  and  _178
REMARK   81  A    between atoms: _180  and  _182
REMARK   82  A    between atoms: _182  and  _183
REMARK   83  A    between atoms: _182  and  _185
REMARK   84  A    between atoms: _185  and  _186
REMARK   85  A    between atoms: _189  and  _191
REMARK   86  A    between atoms: _191  and  _192
REMARK   87  A    between atoms: _194  and  _196
REMARK   88  A    between atoms: _196  and  _197
REMARK   89  A    between atoms: _196  and  _199
REMARK   90  A    between atoms: _199  and  _200
REMARK   91  A    between atoms: _200  and  _201
REMARK   92  A    between atoms: _203  and  _205
REMARK   93  A    between atoms: _205  and  _206
REMARK   94  A    between atoms: _205  and  _208
REMARK   95  A    between atoms: _208  and  _209
REMARK   96  A    between atoms: _212  and  _214
REMARK   97  A    between atoms: _214  and  _215
REMARK   98  A    between atoms: _214  and  _217
REMARK   99  A    between atoms: _217  and  _218
REMARK  100  A    between atoms: _221  and  _223
REMARK  101  A    between atoms: _223  and  _224
REMARK  102  A    between atoms: _223  and  _226
REMARK  103  A    between atoms: _226  and  _227
REMARK  104  A    between atoms: _230  and  _232
REMARK  105  A    between atoms: _232  and  _233
REMARK  106  A    between atoms: _232  and  _235
REMARK  107  A    between atoms: _235  and  _236
REMARK  108  A    between atoms: _239  and  _241
REMARK  109  A    between atoms: _241  and  _242
REMARK  110  A    between atoms: _241  and  _244
REMARK  111  A    between atoms: _244  and  _245
REMARK  112  A    between atoms: _250  and  _252
REMARK  113  A    between atoms: _252  and  _253
REMARK  114  A    between atoms: _252  and  _255
REMARK  115  A    between atoms: _255  and  _256
REMARK  116  A    between atoms: _259  and  _261
REMARK  117  A    between atoms: _261  and  _262
REMARK  118  A    between atoms: _264  and  _266
REMARK  119  A    between atoms: _266  and  _267
REMARK  120  A    between atoms: _270  and  _272
REMARK  121  A    between atoms: _272  and  _273
REMARK  122  A    between atoms: _275  and  _277
REMARK  123  A    between atoms: _277  and  _278
REMARK  124  A    between atoms: _277  and  _280
REMARK  125  A    between atoms: _283  and  _285
REMARK  126  A    between atoms: _285  and  _286
REMARK  127  A    between atoms: _288  and  _290
REMARK  128  A    between atoms: _290  and  _291
REMARK  129  A    between atoms: _290  and  _293
REMARK  130  A    between atoms: _293  and  _294
REMARK  131  A    between atoms: _300  and  _302
REMARK  132  A    between atoms: _302  and  _303
REMARK  133  A    between atoms: _302  and  _305
REMARK  134  A    between atoms: _305  and  _306
REMARK  135  A    between atoms: _311  and  _312
REMARK  136  A    between atoms: _314  and  _316
REMARK  137  A    between atoms: _316  and  _317
REMARK  138  A    between atoms: _316  and  _319
REMARK  139  A    between atoms: _319  and  _320
REMARK  140  A    between atoms: _325  and  _326
REMARK  141  A    between atoms: _328  and  _330
REMARK  142  A    between atoms: _330  and  _331
REMARK  143  A    between atoms: _330  and  _333
REMARK  144  A    between atoms: _336  and  _338
REMARK  145  A    between atoms: _338  and  _339
REMARK  146  A    between atoms: _338  and  _341
REMARK  147  A    between atoms: _341  and  _342
REMARK  148  A    between atoms: _345  and  _347
REMARK  149  A    between atoms: _347  and  _348
REMARK  150  A    between atoms: _347  and  _350
REMARK  151  A    between atoms: _353  and  _355
REMARK  152  A    between atoms: _355  and  _356
REMARK  153  A    between atoms: _355  and  _358
REMARK  154  A    between atoms: _358  and  _359
REMARK  155  A    between atoms: _362  and  _364
REMARK  156  A    between atoms: _364  and  _365
REMARK  157  A    between atoms: _364  and  _367
REMARK  158  A    between atoms: _367  and  _368
REMARK  159  A    between atoms: _371  and  _373
REMARK  160  A    between atoms: _373  and  _374
REMARK  161  A    between atoms: _373  and  _376
REMARK  162  A    between atoms: _376  and  _377
REMARK  163  A    between atoms: _377  and  _378
REMARK  164  A    between atoms: _378  and  _379
REMARK  165  A    between atoms: _379  and  _380
REMARK  166  A    between atoms: _384  and  _386
REMARK  167  A    between atoms: _386  and  _387
REMARK  168  A    between atoms: _386  and  _389
REMARK  169  A    between atoms: _389  and  _390
REMARK  170  A    between atoms: _395  and  _397
REMARK  171  A    between atoms: _397  and  _398
REMARK  172  A    between atoms: _401  and  _403
REMARK  173  A    between atoms: _403  and  _404
REMARK  174  A    between atoms: _403  and  _406
REMARK  175  A    between atoms: _406  and  _407
REMARK  176  A    between atoms: _417  and  _419
REMARK  177  A    between atoms: _419  and  _420
REMARK  178  A    between atoms: _419  and  _422
REMARK  179  A    between atoms: _422  and  _423
REMARK  180  A    between atoms: _423  and  _424
REMARK  181  A    between atoms: _427  and  _429
REMARK  182  A    between atoms: _429  and  _430
REMARK  183  A    between atoms: _429  and  _432
REMARK  184  A    between atoms: _432  and  _433
REMARK  185  A    between atoms: _435  and  _437
REMARK  186  A    between atoms: _437  and  _438
REMARK  187  A    between atoms: _437  and  _440
REMARK  188  A    between atoms: _440  and  _441
REMARK  189  A    between atoms: _447  and  _449
REMARK  190  A    between atoms: _449  and  _450
REMARK  191  A    between atoms: _449  and  _452
REMARK  192  A    between atoms: _452  and  _453
REMARK  193  A    between atoms: _456  and  _458
REMARK  194  A    between atoms: _458  and  _459
REMARK  195  A    between atoms: _458  and  _461
REMARK  196  A    between atoms: _464  and  _466
REMARK  197  A    between atoms: _466  and  _467
REMARK  198  A    between atoms: _469  and  _471
REMARK  199  A    between atoms: _471  and  _472
REMARK  200  A    between atoms: _471  and  _474
REMARK  201  A    between atoms: _474  and  _475
REMARK  202  A    between atoms: _478  and  _480
REMARK  203  A    between atoms: _480  and  _481
REMARK  204  A    between atoms: _480  and  _483
REMARK  205  A    between atoms: _483  and  _484
REMARK  206  A    between atoms: _484  and  _485
REMARK  207  A    between atoms: _485  and  _486
REMARK  208  A    between atoms: _486  and  _487
REMARK  209  A    between atoms: _491  and  _493
REMARK  210  A    between atoms: _493  and  _494
REMARK  211  A    between atoms: _493  and  _496
REMARK  212  A    between atoms: _499  and  _501
REMARK  213  A    between atoms: _501  and  _502
REMARK  214  A    between atoms: _501  and  _504
REMARK  215  A    between atoms: _504  and  _505
REMARK                            x       y       z     vdW  Elec       q    Type
REMARK                         _______ _______ _______ _____ _____    ______ ____
ROOT
ATOM      1  CB  PHE A   1     -15.470  27.791  24.118  0.00  0.00    +0.051 C 
ENDROOT
BRANCH   1   2
ATOM      2  CG  PHE A   1     -14.043  27.306  23.945  0.00  0.00    -0.020 A 
ATOM      3  CD2 PHE A   1     -12.957  28.146  24.245  0.00  0.00    -0.004 A 
ATOM      4  CE2 PHE A   1     -11.623  27.712  24.040  0.00  0.00    -0.000 A 
ATOM      5  CZ  PHE A   1     -11.381  26.447  23.505  0.00  0.00    -0.000 A 
ATOM      6  CE1 PHE A   1     -12.473  25.604  23.198  0.00  0.00    -0.000 A 
ATOM      7  CD1 PHE A   1     -13.793  26.049  23.443  0.00  0.00    -0.004 A 
ENDBRANCH   1   2
BRANCH   1   8
ATOM      8  CA  PHE A   1     -15.942  27.877  25.569  0.00  0.00    +0.137 C 
BRANCH   8   9
ATOM      9  N   PHE A   1     -16.176  26.567  26.107  0.00  0.00    -0.239 NA
ATOM     10  H   PHE A   1     -16.072  25.722  25.510  0.00  0.00    +0.142 HD
ENDBRANCH   8   9
BRANCH   8  11
ATOM     11  C   PHE A   1     -17.265  28.592  25.573  0.00  0.00    +0.224 C 
ATOM     12  O   PHE A   1     -18.311  27.977  25.457  0.00  0.00    -0.287 OA
ENDBRANCH   8  11
ENDBRANCH   1   8
TORSDOF 4
REMARK  Name = ../refined-set-2016/3qdd/3qdd_pocket.pdb
REMARK  215 active torsions:
REMARK  status: ('A' for Active; 'I' for Inactive)
REMARK    1  A    between atoms: _1  and  _3
REMARK    2  A    between atoms: _3  and  _4
REMARK    3  A    between atoms: _3  and  _6
REMARK    4  A    between atoms: _6  and  _7
REMARK    5  A    between atoms: _13  and  _15
REMARK    6  A    between atoms: _15  and  _16
REMARK    7  A    between atoms: _15  and  _18
REMARK    8  A    between atoms: _18  and  _19
REMARK    9  A    between atoms: _22  and  _24
REMARK   10  A    between atoms: _24  and  _25
REMARK   11  A    between atoms: _24  and  _27
REMARK   12  A    between atoms: _27  and  _28
REMARK   13  A    between atoms: _28  and  _29
REMARK   14  A    between atoms: _31  and  _33
REMARK   15  A    between atoms: _33  and  _34
REMARK   16  A    between atoms: _33  and  _36
REMARK   17  A    between atoms: _36  and  _37
REMARK   18  A    between atoms: _37  and  _38
REMARK   19  A    between atoms: _41  and  _43
REMARK   20  A    between atoms: _43  and  _44
REMARK   21  A    between atoms: _43  and  _46
REMARK   22  A    between atoms: _46  and  _47
REMARK   23  A    between atoms: _50  and  _52
REMARK   24  A    between atoms: _52  and  _53
REMARK   25  A    between atoms: _52  and  _55
REMARK   26  A    between atoms: _55  and  _56
REMARK   27  A    between atoms: _59  and  _61
REMARK   28  A    between atoms: _61  and  _62
REMARK   29  A    between atoms: _61  and  _64
REMARK   30  A    between atoms: _64  and  _65
REMARK   31  A    between atoms: _67  and  _69
REMARK   32  A    between atoms: _69  and  _70
REMARK   33  A    between atoms: _69  and  _72
REMARK   34  A    between atoms: _72  and  _73
REMARK   35  A    between atoms: _78  and  _80
REMARK   36  A    between atoms: _80  and  _81
REMARK   37  A    between atoms: _80  and  _83
REMARK   38  A    between atoms: _83  and  _84
REMARK   39  A    between atoms: _86  and  _88
REMARK   40  A    between atoms: _88  and  _89
REMARK   41  A    between atoms: _88  and  _91
REMARK   42  A    between atoms: _91  and  _92
REMARK   43  A    between atoms: _94  and  _96
REMARK   44  A    between atoms: _96  and  _97
REMARK   45  A    between atoms: _96  and  _99
REMARK   46  A    between atoms: _99  and  _100
REMARK   47  A    between atoms: _103  and  _105
REMARK   48  A    between atoms: _105  and  _106
REMARK   49  A    between atoms: _109  and  _111
REMARK   50  A    between atoms: _111  and  _112
REMARK   51  A    between atoms: _111  and  _114
REMARK   52  A    between atoms: _114  and  _115
REMARK   53  A    between atoms: _118  and  _120
REMARK   54  A    between atoms: _120  and  _121
REMARK   55  A    between atoms: _120  and  _123
REMARK   56  A    between atoms: _123  and  _124
REMARK   57  A    between atoms: _124  and  _125
REMARK   58  A    between atoms: _125  and  _126
REMARK   59  A    between atoms: _126  and  _127
REMARK   60  A    between atoms: _131  and  _133
REMARK   61  A    between atoms: _133  and  _134
REMARK   62  A    between atoms: _133  and  _136
REMARK   63  A    between atoms: _136  and  _137
REMARK   64  A    between atoms: _140  and  _142
REMARK   65  A    between atoms: _142  and  _143
REMARK   66  A    between atoms: _142  and  _145
REMARK   67  A    between atoms: _145  and  _146
REMARK   68  A    between atoms: _149  and  _151
REMARK   69  A    between atoms: _151  and  _152
REMARK   70  A    between atoms: _151  and  _154
REMARK   71  A    between atoms: _157  and  _159
REMARK   72  A    between atoms: _159  and  _160
REMARK   73  A    between atoms: _159  and  _162
REMARK   74  A    between atoms: _162  and  _163
REMARK   75  A    between atoms: _166  and  _168
REMARK   76  A    between atoms: _168  and  _169
REMARK   77  A    between atoms: _168  and  _171
REMARK   78  A    between atoms: _171  and  _172
REMARK   79  A    between atoms: _175  and  _177
REMARK   80  A    between atoms: _177  and  _178
REMARK   81  A    between atoms: _180  and  _182
REMARK   82  A    between atoms: _182  and  _183
REMARK   83  A    between atoms: _182  and  _185
REMARK   84  A    between atoms: _185  and  _186
REMARK   85  A    between atoms: _189  and  _191
REMARK   86  A    between atoms: _191  and  _192
REMARK   87  A    between atoms: _194  and  _196
REMARK   88  A    between atoms: _196  and  _197
REMARK   89  A    between atoms: _196  and  _199
REMARK   90  A    between atoms: _199  and  _200
REMARK   91  A    between atoms: _200  and  _201
REMARK   92  A    between atoms: _203  and  _205
REMARK   93  A    between atoms: _205  and  _206
REMARK   94  A    between atoms: _205  and  _208
REMARK   95  A    between atoms: _208  and  _209
REMARK   96  A    between atoms: _212  and  _214
REMARK   97  A    between atoms: _214  and  _215
REMARK   98  A    between atoms: _214  and  _217
REMARK   99  A    between atoms: _217  and  _218
REMARK  100  A    between atoms: _221  and  _223
REMARK  101  A    between atoms: _223  and  _224
REMARK  102  A    between atoms: _223  and  _226
REMARK  103  A    between atoms: _226  and  _227
REMARK  104  A    between atoms: _230  and  _232
REMARK  105  A    between atoms: _232  and  _233
REMARK  106  A    between atoms: _232  and  _235
REMARK  107  A    between atoms: _235  and  _236
REMARK  108  A    between atoms: _239  and  _241
REMARK  109  A    between atoms: _241  and  _242
REMARK  110  A    between atoms: _241  and  _244
REMARK  111  A    between atoms: _244  and  _245
REMARK  112  A    between atoms: _250  and  _252
REMARK  113  A    between atoms: _252  and  _253
REMARK  114  A    between atoms: _252  and  _255
REMARK  115  A    between atoms: _255  and  _256
REMARK  116  A    between atoms: _259  and  _261
REMARK  117  A    between atoms: _261  and  _262
REMARK  118  A    between atoms: _264  and  _266
REMARK  119  A    between atoms: _266  and  _267
REMARK  120  A    between atoms: _270  and  _272
REMARK  121  A    between atoms: _272  and  _273
REMARK  122  A    between atoms: _275  and  _277
REMARK  123  A    between atoms: _277  and  _278
REMARK  124  A    between atoms: _277  and  _280
REMARK  125  A    between atoms: _283  and  _285
REMARK  126  A    between atoms: _285  and  _286
REMARK  127  A    between atoms: _288  and  _290
REMARK  128  A    between atoms: _290  and  _291
REMARK  129  A    between atoms: _290  and  _293
REMARK  130  A    between atoms: _293  and  _294
REMARK  131  A    between atoms: _300  and  _302
REMARK  132  A    between atoms: _302  and  _303
REMARK  133  A    between atoms: _302  and  _305
REMARK  134  A    between atoms: _305  and  _306
REMARK  135  A    between atoms: _311  and  _312
REMARK  136  A    between atoms: _314  and  _316
REMARK  137  A    between atoms: _316  and  _317
REMARK  138  A    between atoms: _316  and  _319
REMARK  139  A    between atoms: _319  and  _320
REMARK  140  A    between atoms: _325  and  _326
REMARK  141  A    between atoms: _328  and  _330
REMARK  142  A    between atoms: _330  and  _331
REMARK  143  A    between atoms: _330  and  _333
REMARK  144  A    between atoms: _336  and  _338
REMARK  145  A    between atoms: _338  and  _339
REMARK  146  A    between atoms: _338  and  _341
REMARK  147  A    between atoms: _341  and  _342
REMARK  148  A    between atoms: _345  and  _347
REMARK  149  A    between atoms: _347  and  _348
REMARK  150  A    between atoms: _347  and  _350
REMARK  151  A    between atoms: _353  and  _355
REMARK  152  A    between atoms: _355  and  _356
REMARK  153  A    between atoms: _355  and  _358
REMARK  154  A    between atoms: _358  and  _359
REMARK  155  A    between atoms: _362  and  _364
REMARK  156  A    between atoms: _364  and  _365
REMARK  157  A    between atoms: _364  and  _367
REMARK  158  A    between atoms: _367  and  _368
REMARK  159  A    between atoms: _371  and  _373
REMARK  160  A    between atoms: _373  and  _374
REMARK  161  A    between atoms: _373  and  _376
REMARK  162  A    between atoms: _376  and  _377
REMARK  163  A    between atoms: _377  and  _378
REMARK  164  A    between atoms: _378  and  _379
REMARK  165  A    between atoms: _379  and  _380
REMARK  166  A    between atoms: _384  and  _386
REMARK  167  A    between atoms: _386  and  _387
REMARK  168  A    between atoms: _386  and  _389
REMARK  169  A    between atoms: _389  and  _390
REMARK  170  A    between atoms: _395  and  _397
REMARK  171  A    between atoms: _397  and  _398
REMARK  172  A    between atoms: _401  and  _403
REMARK  173  A    between atoms: _403  and  _404
REMARK  174  A    between atoms: _403  and  _406
REMARK  175  A    between atoms: _406  and  _407
REMARK  176  A    between atoms: _417  and  _419
REMARK  177  A    between atoms: _419  and  _420
REMARK  178  A    between atoms: _419  and  _422
REMARK  179  A    between atoms: _422  and  _423
REMARK  180  A    between atoms: _423  and  _424
REMARK  181  A    between atoms: _427  and  _429
REMARK  182  A    between atoms: _429  and  _430
REMARK  183  A    between atoms: _429  and  _432
REMARK  184  A    between atoms: _432  and  _433
REMARK  185  A    between atoms: _435  and  _437
REMARK  186  A    between atoms: _437  and  _438
REMARK  187  A    between atoms: _437  and  _440
REMARK  188  A    between atoms: _440  and  _441
REMARK  189  A    between atoms: _447  and  _449
REMARK  190  A    between atoms: _449  and  _450
REMARK  191  A    between atoms: _449  and  _452
REMARK  192  A    between atoms: _452  and  _453
REMARK  193  A    between atoms: _456  and  _458
REMARK  194  A    between atoms: _458  and  _459
REMARK  195  A    between atoms: _458  and  _461
REMARK  196  A    between atoms: _464  and  _466
REMARK  197  A    between atoms: _466  and  _467
REMARK  198  A    between atoms: _469  and  _471
REMARK  199  A    between atoms: _471  and  _472
REMARK  200  A    between atoms: _471  and  _474
REMARK  201  A    between atoms: _474  and  _475
REMARK  202  A    between atoms: _478  and  _480
REMARK  203  A    between atoms: _480  and  _481
REMARK  204  A    between atoms: _480  and  _483
REMARK  205  A    between atoms: _483  and  _484
REMARK  206  A    between atoms: _484  and  _485
REMARK  207  A    between atoms: _485  and  _486
REMARK  208  A    between atoms: _486  and  _487
REMARK  209  A    between atoms: _491  and  _493
REMARK  210  A    between atoms: _493  and  _494
REMARK  211  A    between atoms: _493  and  _496
REMARK  212  A    between atoms: _499  and  _501
REMARK  213  A    between atoms: _501  and  _502
REMARK  214  A    between atoms: _501  and  _504
REMARK  215  A    between atoms: _504  and  _505
REMARK                            x       y       z     vdW  Elec       q    Type
REMARK                         _______ _______ _______ _____ _____    ______ ____
ROOT
ATOM      1  CA  ILE A   1     -15.564  31.499  20.709  0.00  0.00    +0.133 C 
ENDROOT
BRANCH   1   2
ATOM      2  N   ILE A   1     -16.893  32.043  20.944  0.00  0.00    -0.239 NA
ATOM      3  H   ILE A   1     -17.260  32.057  21.917  0.00  0.00    +0.142 HD
ENDBRANCH   1   2
BRANCH   1   4
ATOM      4  CB  ILE A   1     -14.693  31.499  21.990  0.00  0.00    +0.023 C 
ATOM      5  CG2 ILE A   1     -13.280  30.842  21.703  0.00  0.00    +0.002 C 
BRANCH   4   6
ATOM      6  CG1 ILE A   1     -14.630  32.910  22.606  0.00  0.00    +0.002 C 
ATOM      7  CD1 ILE A   1     -14.265  34.034  21.733  0.00  0.00    +0.000 C 
ENDBRANCH   4   6
ENDBRANCH   1   4
BRANCH   1   8
ATOM      8  C   ILE A   1     -15.617  30.123  20.059  0.00  0.00    +0.224 C 
ATOM      9  O   ILE A   1     -14.866  29.848  19.129  0.00  0.00    -0.287 OA
ENDBRANCH   1   8
TORSDOF 4
REMARK  Name = ../refined-set-2016/3qdd/3qdd_pocket.pdb
REMARK  215 active torsions:
REMARK  status: ('A' for Active; 'I' for Inactive)
REMARK    1  A    between atoms: _1  and  _3
REMARK    2  A    between atoms: _3  and  _4
REMARK    3  A    between atoms: _3  and  _6
REMARK    4  A    between atoms: _6  and  _7
REMARK    5  A    between atoms: _13  and  _15
REMARK    6  A    between atoms: _15  and  _16
REMARK    7  A    between atoms: _15  and  _18
REMARK    8  A    between atoms: _18  and  _19
REMARK    9  A    between atoms: _22  and  _24
REMARK   10  A    between atoms: _24  and  _25
REMARK   11  A    between atoms: _24  and  _27
REMARK   12  A    between atoms: _27  and  _28
REMARK   13  A    between atoms: _28  and  _29
REMARK   14  A    between atoms: _31  and  _33
REMARK   15  A    between atoms: _33  and  _34
REMARK   16  A    between atoms: _33  and  _36
REMARK   17  A    between atoms: _36  and  _37
REMARK   18  A    between atoms: _37  and  _38
REMARK   19  A    between atoms: _41  and  _43
REMARK   20  A    between atoms: _43  and  _44
REMARK   21  A    between atoms: _43  and  _46
REMARK   22  A    between atoms: _46  and  _47
REMARK   23  A    between atoms: _50  and  _52
REMARK   24  A    between atoms: _52  and  _53
REMARK   25  A    between atoms: _52  and  _55
REMARK   26  A    between atoms: _55  and  _56
REMARK   27  A    between atoms: _59  and  _61
REMARK   28  A    between atoms: _61  and  _62
REMARK   29  A    between atoms: _61  and  _64
REMARK   30  A    between atoms: _64  and  _65
REMARK   31  A    between atoms: _67  and  _69
REMARK   32  A    between atoms: _69  and  _70
REMARK   33  A    between atoms: _69  and  _72
REMARK   34  A    between atoms: _72  and  _73
REMARK   35  A    between atoms: _78  and  _80
REMARK   36  A    between atoms: _80  and  _81
REMARK   37  A    between atoms: _80  and  _83
REMARK   38  A    between atoms: _83  and  _84
REMARK   39  A    between atoms: _86  and  _88
REMARK   40  A    between atoms: _88  and  _89
REMARK   41  A    between atoms: _88  and  _91
REMARK   42  A    between atoms: _91  and  _92
REMARK   43  A    between atoms: _94  and  _96
REMARK   44  A    between atoms: _96  and  _97
REMARK   45  A    between atoms: _96  and  _99
REMARK   46  A    between atoms: _99  and  _100
REMARK   47  A    between atoms: _103  and  _105
REMARK   48  A    between atoms: _105  and  _106
REMARK   49  A    between atoms: _109  and  _111
REMARK   50  A    between atoms: _111  and  _112
REMARK   51  A    between atoms: _111  and  _114
REMARK   52  A    between atoms: _114  and  _115
REMARK   53  A    between atoms: _118  and  _120
REMARK   54  A    between atoms: _120  and  _121
REMARK   55  A    between atoms: _120  and  _123
REMARK   56  A    between atoms: _123  and  _124
REMARK   57  A    between atoms: _124  and  _125
REMARK   58  A    between atoms: _125  and  _126
REMARK   59  A    between atoms: _126  and  _127
REMARK   60  A    between atoms: _131  and  _133
REMARK   61  A    between atoms: _133  and  _134
REMARK   62  A    between atoms: _133  and  _136
REMARK   63  A    between atoms: _136  and  _137
REMARK   64  A    between atoms: _140  and  _142
REMARK   65  A    between atoms: _142  and  _143
REMARK   66  A    between atoms: _142  and  _145
REMARK   67  A    between atoms: _145  and  _146
REMARK   68  A    between atoms: _149  and  _151
REMARK   69  A    between atoms: _151  and  _152
REMARK   70  A    between atoms: _151  and  _154
REMARK   71  A    between atoms: _157  and  _159
REMARK   72  A    between atoms: _159  and  _160
REMARK   73  A    between atoms: _159  and  _162
REMARK   74  A    between atoms: _162  and  _163
REMARK   75  A    between atoms: _166  and  _168
REMARK   76  A    between atoms: _168  and  _169
REMARK   77  A    between atoms: _168  and  _171
REMARK   78  A    between atoms: _171  and  _172
REMARK   79  A    between atoms: _175  and  _177
REMARK   80  A    between atoms: _177  and  _178
REMARK   81  A    between atoms: _180  and  _182
REMARK   82  A    between atoms: _182  and  _183
REMARK   83  A    between atoms: _182  and  _185
REMARK   84  A    between atoms: _185  and  _186
REMARK   85  A    between atoms: _189  and  _191
REMARK   86  A    between atoms: _191  and  _192
REMARK   87  A    between atoms: _194  and  _196
REMARK   88  A    between atoms: _196  and  _197
REMARK   89  A    between atoms: _196  and  _199
REMARK   90  A    between atoms: _199  and  _200
REMARK   91  A    between atoms: _200  and  _201
REMARK   92  A    between atoms: _203  and  _205
REMARK   93  A    between atoms: _205  and  _206
REMARK   94  A    between atoms: _205  and  _208
REMARK   95  A    between atoms: _208  and  _209
REMARK   96  A    between atoms: _212  and  _214
REMARK   97  A    between atoms: _214  and  _215
REMARK   98  A    between atoms: _214  and  _217
REMARK   99  A    between atoms: _217  and  _218
REMARK  100  A    between atoms: _221  and  _223
REMARK  101  A    between atoms: _223  and  _224
REMARK  102  A    between atoms: _223  and  _226
REMARK  103  A    between atoms: _226  and  _227
REMARK  104  A    between atoms: _230  and  _232
REMARK  105  A    between atoms: _232  and  _233
REMARK  106  A    between atoms: _232  and  _235
REMARK  107  A    between atoms: _235  and  _236
REMARK  108  A    between atoms: _239  and  _241
REMARK  109  A    between atoms: _241  and  _242
REMARK  110  A    between atoms: _241  and  _244
REMARK  111  A    between atoms: _244  and  _245
REMARK  112  A    between atoms: _250  and  _252
REMARK  113  A    between atoms: _252  and  _253
REMARK  114  A    between atoms: _252  and  _255
REMARK  115  A    between atoms: _255  and  _256
REMARK  116  A    between atoms: _259  and  _261
REMARK  117  A    between atoms: _261  and  _262
REMARK  118  A    between atoms: _264  and  _266
REMARK  119  A    between atoms: _266  and  _267
REMARK  120  A    between atoms: _270  and  _272
REMARK  121  A    between atoms: _272  and  _273
REMARK  122  A    between atoms: _275  and  _277
REMARK  123  A    between atoms: _277  and  _278
REMARK  124  A    between atoms: _277  and  _280
REMARK  125  A    between atoms: _283  and  _285
REMARK  126  A    between atoms: _285  and  _286
REMARK  127  A    between atoms: _288  and  _290
REMARK  128  A    between atoms: _290  and  _291
REMARK  129  A    between atoms: _290  and  _293
REMARK  130  A    between atoms: _293  and  _294
REMARK  131  A    between atoms: _300  and  _302
REMARK  132  A    between atoms: _302  and  _303
REMARK  133  A    between atoms: _302  and  _305
REMARK  134  A    between atoms: _305  and  _306
REMARK  135  A    between atoms: _311  and  _312
REMARK  136  A    between atoms: _314  and  _316
REMARK  137  A    between atoms: _316  and  _317
REMARK  138  A    between atoms: _316  and  _319
REMARK  139  A    between atoms: _319  and  _320
REMARK  140  A    between atoms: _325  and  _326
REMARK  141  A    between atoms: _328  and  _330
REMARK  142  A    between atoms: _330  and  _331
REMARK  143  A    between atoms: _330  and  _333
REMARK  144  A    between atoms: _336  and  _338
REMARK  145  A    between atoms: _338  and  _339
REMARK  146  A    between atoms: _338  and  _341
REMARK  147  A    between atoms: _341  and  _342
REMARK  148  A    between atoms: _345  and  _347
REMARK  149  A    between atoms: _347  and  _348
REMARK  150  A    between atoms: _347  and  _350
REMARK  151  A    between atoms: _353  and  _355
REMARK  152  A    between atoms: _355  and  _356
REMARK  153  A    between atoms: _355  and  _358
REMARK  154  A    between atoms: _358  and  _359
REMARK  155  A    between atoms: _362  and  _364
REMARK  156  A    between atoms: _364  and  _365
REMARK  157  A    between atoms: _364  and  _367
REMARK  158  A    between atoms: _367  and  _368
REMARK  159  A    between atoms: _371  and  _373
REMARK  160  A    between atoms: _373  and  _374
REMARK  161  A    between atoms: _373  and  _376
REMARK  162  A    between atoms: _376  and  _377
REMARK  163  A    between atoms: _377  and  _378
REMARK  164  A    between atoms: _378  and  _379
REMARK  165  A    between atoms: _379  and  _380
REMARK  166  A    between atoms: _384  and  _386
REMARK  167  A    between atoms: _386  and  _387
REMARK  168  A    between atoms: _386  and  _389
REMARK  169  A    between atoms: _389  and  _390
REMARK  170  A    between atoms: _395  and  _397
REMARK  171  A    between atoms: _397  and  _398
REMARK  172  A    between atoms: _401  and  _403
REMARK  173  A    between atoms: _403  and  _404
REMARK  174  A    between atoms: _403  and  _406
REMARK  175  A    between atoms: _406  and  _407
REMARK  176  A    between atoms: _417  and  _419
REMARK  177  A    between atoms: _419  and  _420
REMARK  178  A    between atoms: _419  and  _422
REMARK  179  A    between atoms: _422  and  _423
REMARK  180  A    between atoms: _423  and  _424
REMARK  181  A    between atoms: _427  and  _429
REMARK  182  A    between atoms: _429  and  _430
REMARK  183  A    between atoms: _429  and  _432
REMARK  184  A    between atoms: _432  and  _433
REMARK  185  A    between atoms: _435  and  _437
REMARK  186  A    between atoms: _437  and  _438
REMARK  187  A    between atoms: _437  and  _440
REMARK  188  A    between atoms: _440  and  _441
REMARK  189  A    between atoms: _447  and  _449
REMARK  190  A    between atoms: _449  and  _450
REMARK  191  A    between atoms: _449  and  _452
REMARK  192  A    between atoms: _452  and  _453
REMARK  193  A    between atoms: _456  and  _458
REMARK  194  A    between atoms: _458  and  _459
REMARK  195  A    between atoms: _458  and  _461
REMARK  196  A    between atoms: _464  and  _466
REMARK  197  A    between atoms: _466  and  _467
REMARK  198  A    between atoms: _469  and  _471
REMARK  199  A    between atoms: _471  and  _472
REMARK  200  A    between atoms: _471  and  _474
REMARK  201  A    between atoms: _474  and  _475
REMARK  202  A    between atoms: _478  and  _480
REMARK  203  A    between atoms: _480  and  _481
REMARK  204  A    between atoms: _480  and  _483
REMARK  205  A    between atoms: _483  and  _484
REMARK  206  A    between atoms: _484  and  _485
REMARK  207  A    between atoms: _485  and  _486
REMARK  208  A    between atoms: _486  and  _487
REMARK  209  A    between atoms: _491  and  _493
REMARK  210  A    between atoms: _493  and  _494
REMARK  211  A    between atoms: _493  and  _496
REMARK  212  A    between atoms: _499  and  _501
REMARK  213  A    between atoms: _501  and  _502
REMARK  214  A    between atoms: _501  and  _504
REMARK  215  A    between atoms: _504  and  _505
REMARK                            x       y       z     vdW  Elec       q    Type
REMARK                         _______ _______ _______ _____ _____    ______ ____
ROOT
ATOM      1  CA  MET A   1     -13.123  28.092  16.169  0.00  0.00    +0.134 C 
ENDROOT
BRANCH   1   2
ATOM      2  N   MET A   1     -13.944  29.273  16.426  0.00  0.00    -0.239 NA
ATOM      3  H   MET A   1     -14.349  29.433  17.371  0.00  0.00    +0.142 HD
ENDBRANCH   1   2
BRANCH   1   4
ATOM      4  C   MET A   1     -13.724  27.223  15.069  0.00  0.00    +0.224 C 
ATOM      5  O   MET A   1     -13.002  26.743  14.197  0.00  0.00    -0.287 OA
ENDBRANCH   1   4
BRANCH   1   6
ATOM      6  CB  MET A   1     -12.887  27.289  17.464  0.00  0.00    +0.037 C 
BRANCH   6   7
ATOM      7  CG  MET A   1     -12.087  28.061  18.470  0.00  0.00    +0.059 C 
BRANCH   7   8
ATOM      8  SD  MET A   1     -12.061  27.326  20.149  0.00  0.00    -0.139 S 
ATOM      9  CE  MET A   1     -10.837  26.046  19.874  0.00  0.00    +0.069 C 
ENDBRANCH   7   8
ENDBRANCH   6   7
ENDBRANCH   1   6
TORSDOF 5
REMARK  Name = ../refined-set-2016/3qdd/3qdd_pocket.pdb
REMARK  215 active torsions:
REMARK  status: ('A' for Active; 'I' for Inactive)
REMARK    1  A    between atoms: _1  and  _3
REMARK    2  A    between atoms: _3  and  _4
REMARK    3  A    between atoms: _3  and  _6
REMARK    4  A    between atoms: _6  and  _7
REMARK    5  A    between atoms: _13  and  _15
REMARK    6  A    between atoms: _15  and  _16
REMARK    7  A    between atoms: _15  and  _18
REMARK    8  A    between atoms: _18  and  _19
REMARK    9  A    between atoms: _22  and  _24
REMARK   10  A    between atoms: _24  and  _25
REMARK   11  A    between atoms: _24  and  _27
REMARK   12  A    between atoms: _27  and  _28
REMARK   13  A    between atoms: _28  and  _29
REMARK   14  A    between atoms: _31  and  _33
REMARK   15  A    between atoms: _33  and  _34
REMARK   16  A    between atoms: _33  and  _36
REMARK   17  A    between atoms: _36  and  _37
REMARK   18  A    between atoms: _37  and  _38
REMARK   19  A    between atoms: _41  and  _43
REMARK   20  A    between atoms: _43  and  _44
REMARK   21  A    between atoms: _43  and  _46
REMARK   22  A    between atoms: _46  and  _47
REMARK   23  A    between atoms: _50  and  _52
REMARK   24  A    between atoms: _52  and  _53
REMARK   25  A    between atoms: _52  and  _55
REMARK   26  A    between atoms: _55  and  _56
REMARK   27  A    between atoms: _59  and  _61
REMARK   28  A    between atoms: _61  and  _62
REMARK   29  A    between atoms: _61  and  _64
REMARK   30  A    between atoms: _64  and  _65
REMARK   31  A    between atoms: _67  and  _69
REMARK   32  A    between atoms: _69  and  _70
REMARK   33  A    between atoms: _69  and  _72
REMARK   34  A    between atoms: _72  and  _73
REMARK   35  A    between atoms: _78  and  _80
REMARK   36  A    between atoms: _80  and  _81
REMARK   37  A    between atoms: _80  and  _83
REMARK   38  A    between atoms: _83  and  _84
REMARK   39  A    between atoms: _86  and  _88
REMARK   40  A    between atoms: _88  and  _89
REMARK   41  A    between atoms: _88  and  _91
REMARK   42  A    between atoms: _91  and  _92
REMARK   43  A    between atoms: _94  and  _96
REMARK   44  A    between atoms: _96  and  _97
REMARK   45  A    between atoms: _96  and  _99
REMARK   46  A    between atoms: _99  and  _100
REMARK   47  A    between atoms: _103  and  _105
REMARK   48  A    between atoms: _105  and  _106
REMARK   49  A    between atoms: _109  and  _111
REMARK   50  A    between atoms: _111  and  _112
REMARK   51  A    between atoms: _111  and  _114
REMARK   52  A    between atoms: _114  and  _115
REMARK   53  A    between atoms: _118  and  _120
REMARK   54  A    between atoms: _120  and  _121
REMARK   55  A    between atoms: _120  and  _123
REMARK   56  A    between atoms: _123  and  _124
REMARK   57  A    between atoms: _124  and  _125
REMARK   58  A    between atoms: _125  and  _126
REMARK   59  A    between atoms: _126  and  _127
REMARK   60  A    between atoms: _131  and  _133
REMARK   61  A    between atoms: _133  and  _134
REMARK   62  A    between atoms: _133  and  _136
REMARK   63  A    between atoms: _136  and  _137
REMARK   64  A    between atoms: _140  and  _142
REMARK   65  A    between atoms: _142  and  _143
REMARK   66  A    between atoms: _142  and  _145
REMARK   67  A    between atoms: _145  and  _146
REMARK   68  A    between atoms: _149  and  _151
REMARK   69  A    between atoms: _151  and  _152
REMARK   70  A    between atoms: _151  and  _154
REMARK   71  A    between atoms: _157  and  _159
REMARK   72  A    between atoms: _159  and  _160
REMARK   73  A    between atoms: _159  and  _162
REMARK   74  A    between atoms: _162  and  _163
REMARK   75  A    between atoms: _166  and  _168
REMARK   76  A    between atoms: _168  and  _169
REMARK   77  A    between atoms: _168  and  _171
REMARK   78  A    between atoms: _171  and  _172
REMARK   79  A    between atoms: _175  and  _177
REMARK   80  A    between atoms: _177  and  _178
REMARK   81  A    between atoms: _180  and  _182
REMARK   82  A    between atoms: _182  and  _183
REMARK   83  A    between atoms: _182  and  _185
REMARK   84  A    between atoms: _185  and  _186
REMARK   85  A    between atoms: _189  and  _191
REMARK   86  A    between atoms: _191  and  _192
REMARK   87  A    between atoms: _194  and  _196
REMARK   88  A    between atoms: _196  and  _197
REMARK   89  A    between atoms: _196  and  _199
REMARK   90  A    between atoms: _199  and  _200
REMARK   91  A    between atoms: _200  and  _201
REMARK   92  A    between atoms: _203  and  _205
REMARK   93  A    between atoms: _205  and  _206
REMARK   94  A    between atoms: _205  and  _208
REMARK   95  A    between atoms: _208  and  _209
REMARK   96  A    between atoms: _212  and  _214
REMARK   97  A    between atoms: _214  and  _215
REMARK   98  A    between atoms: _214  and  _217
REMARK   99  A    between atoms: _217  and  _218
REMARK  100  A    between atoms: _221  and  _223
REMARK  101  A    between atoms: _223  and  _224
REMARK  102  A    between atoms: _223  and  _226
REMARK  103  A    between atoms: _226  and  _227
REMARK  104  A    between atoms: _230  and  _232
REMARK  105  A    between atoms: _232  and  _233
REMARK  106  A    between atoms: _232  and  _235
REMARK  107  A    between atoms: _235  and  _236
REMARK  108  A    between atoms: _239  and  _241
REMARK  109  A    between atoms: _241  and  _242
REMARK  110  A    between atoms: _241  and  _244
REMARK  111  A    between atoms: _244  and  _245
REMARK  112  A    between atoms: _250  and  _252
REMARK  113  A    between atoms: _252  and  _253
REMARK  114  A    between atoms: _252  and  _255
REMARK  115  A    between atoms: _255  and  _256
REMARK  116  A    between atoms: _259  and  _261
REMARK  117  A    between atoms: _261  and  _262
REMARK  118  A    between atoms: _264  and  _266
REMARK  119  A    between atoms: _266  and  _267
REMARK  120  A    between atoms: _270  and  _272
REMARK  121  A    between atoms: _272  and  _273
REMARK  122  A    between atoms: _275  and  _277
REMARK  123  A    between atoms: _277  and  _278
REMARK  124  A    between atoms: _277  and  _280
REMARK  125  A    between atoms: _283  and  _285
REMARK  126  A    between atoms: _285  and  _286
REMARK  127  A    between atoms: _288  and  _290
REMARK  128  A    between atoms: _290  and  _291
REMARK  129  A    between atoms: _290  and  _293
REMARK  130  A    between atoms: _293  and  _294
REMARK  131  A    between atoms: _300  and  _302
REMARK  132  A    between atoms: _302  and  _303
REMARK  133  A    between atoms: _302  and  _305
REMARK  134  A    between atoms: _305  and  _306
REMARK  135  A    between atoms: _311  and  _312
REMARK  136  A    between atoms: _314  and  _316
REMARK  137  A    between atoms: _316  and  _317
REMARK  138  A    between atoms: _316  and  _319
REMARK  139  A    between atoms: _319  and  _320
REMARK  140  A    between atoms: _325  and  _326
REMARK  141  A    between atoms: _328  and  _330
REMARK  142  A    between atoms: _330  and  _331
REMARK  143  A    between atoms: _330  and  _333
REMARK  144  A    between atoms: _336  and  _338
REMARK  145  A    between atoms: _338  and  _339
REMARK  146  A    between atoms: _338  and  _341
REMARK  147  A    between atoms: _341  and  _342
REMARK  148  A    between atoms: _345  and  _347
REMARK  149  A    between atoms: _347  and  _348
REMARK  150  A    between atoms: _347  and  _350
REMARK  151  A    between atoms: _353  and  _355
REMARK  152  A    between atoms: _355  and  _356
REMARK  153  A    between atoms: _355  and  _358
REMARK  154  A    between atoms: _358  and  _359
REMARK  155  A    between atoms: _362  and  _364
REMARK  156  A    between atoms: _364  and  _365
REMARK  157  A    between atoms: _364  and  _367
REMARK  158  A    between atoms: _367  and  _368
REMARK  159  A    between atoms: _371  and  _373
REMARK  160  A    between atoms: _373  and  _374
REMARK  161  A    between atoms: _373  and  _376
REMARK  162  A    between atoms: _376  and  _377
REMARK  163  A    between atoms: _377  and  _378
REMARK  164  A    between atoms: _378  and  _379
REMARK  165  A    between atoms: _379  and  _380
REMARK  166  A    between atoms: _384  and  _386
REMARK  167  A    between atoms: _386  and  _387
REMARK  168  A    between atoms: _386  and  _389
REMARK  169  A    between atoms: _389  and  _390
REMARK  170  A    between atoms: _395  and  _397
REMARK  171  A    between atoms: _397  and  _398
REMARK  172  A    between atoms: _401  and  _403
REMARK  173  A    between atoms: _403  and  _404
REMARK  174  A    between atoms: _403  and  _406
REMARK  175  A    between atoms: _406  and  _407
REMARK  176  A    between atoms: _417  and  _419
REMARK  177  A    between atoms: _419  and  _420
REMARK  178  A    between atoms: _419  and  _422
REMARK  179  A    between atoms: _422  and  _423
REMARK  180  A    between atoms: _423  and  _424
REMARK  181  A    between atoms: _427  and  _429
REMARK  182  A    between atoms: _429  and  _430
REMARK  183  A    between atoms: _429  and  _432
REMARK  184  A    between atoms: _432  and  _433
REMARK  185  A    between atoms: _435  and  _437
REMARK  186  A    between atoms: _437  and  _438
REMARK  187  A    between atoms: _437  and  _440
REMARK  188  A    between atoms: _440  and  _441
REMARK  189  A    between atoms: _447  and  _449
REMARK  190  A    between atoms: _449  and  _450
REMARK  191  A    between atoms: _449  and  _452
REMARK  192  A    between atoms: _452  and  _453
REMARK  193  A    between atoms: _456  and  _458
REMARK  194  A    between atoms: _458  and  _459
REMARK  195  A    between atoms: _458  and  _461
REMARK  196  A    between atoms: _464  and  _466
REMARK  197  A    between atoms: _466  and  _467
REMARK  198  A    between atoms: _469  and  _471
REMARK  199  A    between atoms: _471  and  _472
REMARK  200  A    between atoms: _471  and  _474
REMARK  201  A    between atoms: _474  and  _475
REMARK  202  A    between atoms: _478  and  _480
REMARK  203  A    between atoms: _480  and  _481
REMARK  204  A    between atoms: _480  and  _483
REMARK  205  A    between atoms: _483  and  _484
REMARK  206  A    between atoms: _484  and  _485
REMARK  207  A    between atoms: _485  and  _486
REMARK  208  A    between atoms: _486  and  _487
REMARK  209  A    between atoms: _491  and  _493
REMARK  210  A    between atoms: _493  and  _494
REMARK  211  A    between atoms: _493  and  _496
REMARK  212  A    between atoms: _499  and  _501
REMARK  213  A    between atoms: _501  and  _502
REMARK  214  A    between atoms: _501  and  _504
REMARK  215  A    between atoms: _504  and  _505
REMARK                            x       y       z     vdW  Elec       q    Type
REMARK                         _______ _______ _______ _____ _____    ______ ____
ROOT
ATOM      1  CA  ASN A   5       1.389  37.206  20.614  0.00  0.00    +0.158 C 
ENDROOT
BRANCH   1   4
ATOM      2  C   SER A   4       2.601  38.434  18.901  0.00  0.00    +0.243 C 
ATOM      3  O   SER A   4       2.892  39.318  19.685  0.00  0.00    -0.273 OA
ATOM      4  N   ASN A   5       1.815  37.411  19.238  0.00  0.00    -0.297 N 
ATOM      5  H   ASN A   5       1.500  36.746  18.503  0.00  0.00    +0.150 HD
BRANCH   2   6
ATOM      6  CA  SER A   4       3.027  38.499  17.438  0.00  0.00    +0.178 C 
BRANCH   6   9
ATOM      7  C   ILE A   3       4.514  36.586  17.582  0.00  0.00    +0.241 C 
ATOM      8  O   ILE A   3       5.134  37.076  18.444  0.00  0.00    -0.273 OA
ATOM      9  N   SER A   4       3.508  37.201  16.986  0.00  0.00    -0.295 N 
ATOM     10  H   SER A   4       3.047  36.746  16.172  0.00  0.00    +0.150 HD
BRANCH   7  11
ATOM     11  CA  ILE A   3       4.832  35.179  17.112  0.00  0.00    +0.149 C 
BRANCH  11  14
ATOM     12  C   LEU A   2       2.819  34.113  17.870  0.00  0.00    +0.241 C 
ATOM     13  O   LEU A   2       3.023  34.395  18.981  0.00  0.00    -0.273 OA
ATOM     14  N   ILE A   3       3.642  34.404  16.889  0.00  0.00    -0.297 N 
ATOM     15  H   ILE A   3       3.428  34.066  15.929  0.00  0.00    +0.150 HD
BRANCH  12  16
ATOM     16  CA  LEU A   2       1.536  33.387  17.462  0.00  0.00    +0.149 C 
BRANCH  16  19
ATOM     17  C   GLU A   1       0.459  35.131  16.188  0.00  0.00    +0.238 C 
ATOM     18  O   GLU A   1       0.403  35.856  17.119  0.00  0.00    -0.274 OA
ATOM     19  N   LEU A   2       0.966  33.920  16.242  0.00  0.00    -0.297 N 
ATOM     20  H   LEU A   2       0.958  33.329  15.386  0.00  0.00    +0.150 HD
BRANCH  17  21
ATOM     21  CA  GLU A   1      -0.107  35.545  14.810  0.00  0.00    +0.145 C 
BRANCH  21  22
ATOM     22  N   GLU A   1       0.745  35.181  13.695  0.00  0.00    -0.238 NA
ATOM     23  H   GLU A   1       0.409  34.498  12.986  0.00  0.00    +0.142 HD
ENDBRANCH  21  22
BRANCH  21  24
ATOM     24  CB  GLU A   1      -1.509  34.973  14.612  0.00  0.00    +0.038 C 
BRANCH  24  25
ATOM     25  CG  GLU A   1      -2.211  35.443  13.328  0.00  0.00    +0.116 C 
BRANCH  25  26
ATOM     26  CD  GLU A   1      -2.312  36.942  13.223  0.00  0.00    +0.365 C 
ATOM     27  OE2 GLU A   1      -2.417  37.584  14.222  0.00  0.00    -0.246 OA
ATOM     28  OE1 GLU A   1      -2.278  37.473  12.130  0.00  0.00    -0.246 OA
ENDBRANCH  25  26
ENDBRANCH  24  25
ENDBRANCH  21  24
ENDBRANCH  17  21
ENDBRANCH  16  19
BRANCH  16  29
ATOM     29  CB  LEU A   2       1.720  31.881  17.373  0.00  0.00    +0.029 C 
BRANCH  29  30
ATOM     30  CG  LEU A   2       0.439  31.090  17.144  0.00  0.00    +0.002 C 
ATOM     31  CD2 LEU A   2      -0.568  31.305  18.237  0.00  0.00    +0.000 C 
ATOM     32  CD1 LEU A   2       0.724  29.657  16.986  0.00  0.00    +0.000 C 
ENDBRANCH  29  30
ENDBRANCH  16  29
ENDBRANCH  12  16
ENDBRANCH  11  14
BRANCH  11  33
ATOM     33  CB  ILE A   3       5.735  35.184  15.874  0.00  0.00    +0.027 C 
ATOM     34  CG2 ILE A   3       6.777  36.260  15.973  0.00  0.00    +0.002 C 
BRANCH  33  35
ATOM     35  CG1 ILE A   3       6.332  33.804  15.657  0.00  0.00    +0.002 C 
ATOM     36  CD1 ILE A   3       7.132  33.660  14.453  0.00  0.00    +0.000 C 
ENDBRANCH  33  35
ENDBRANCH  11  33
ENDBRANCH   7  11
ENDBRANCH   6   9
BRANCH   6  37
ATOM     37  CB  SER A   4       1.887  38.963  16.556  0.00  0.00    +0.166 C 
BRANCH  37  38
ATOM     38  OG  SER A   4       1.390  40.222  16.948  0.00  0.00    -0.380 OA
ATOM     39  H   SER A   4       2.115  40.894  16.893  0.00  0.00    +0.211 HD
ENDBRANCH  37  38
ENDBRANCH   6  37
ENDBRANCH   2   6
ENDBRANCH   1   4
BRANCH   1  40
ATOM     40  C   ASN A   5       2.565  37.085  21.573  0.00  0.00    +0.241 C 
ATOM     41  O   ASN A   5       2.574  37.683  22.663  0.00  0.00    -0.273 OA
ATOM     42  N   SER A   6       3.559  36.310  21.178  0.00  0.00    -0.295 N 
ATOM     43  H   SER A   6       3.469  35.788  20.283  0.00  0.00    +0.150 HD
BRANCH  42  44
ATOM     44  CA  SER A   6       4.781  36.167  21.965  0.00  0.00    +0.178 C 
BRANCH  44  45
ATOM     45  C   SER A   6       5.504  37.528  22.146  0.00  0.00    +0.243 C 
ATOM     46  O   SER A   6       5.904  37.873  23.284  0.00  0.00    -0.273 OA
ATOM     47  N   SER A   7       5.640  38.272  21.057  0.00  0.00    -0.295 N 
ATOM     48  H   SER A   7       5.321  37.889  20.144  0.00  0.00    +0.150 HD
BRANCH  47  49
ATOM     49  CA  SER A   7       6.226  39.619  21.094  0.00  0.00    +0.178 C 
BRANCH  49  50
ATOM     50  C   SER A   7       5.467  40.552  22.066  0.00  0.00    +0.243 C 
ATOM     51  O   SER A   7       6.079  41.219  22.910  0.00  0.00    -0.273 OA
ATOM     52  N   ASP A   8       4.132  40.505  22.034  0.00  0.00    -0.296 N 
ATOM     53  H   ASP A   8       3.662  39.875  21.353  0.00  0.00    +0.150 HD
BRANCH  52  54
ATOM     54  CA  ASP A   8       3.311  41.325  22.942  0.00  0.00    +0.160 C 
BRANCH  54  55
ATOM     55  C   ASP A   8       3.550  40.905  24.409  0.00  0.00    +0.241 C 
ATOM     56  O   ASP A   8       3.666  41.769  25.285  0.00  0.00    -0.273 OA
ATOM     57  N   ALA A   9       3.638  39.594  24.680  0.00  0.00    -0.297 N 
ATOM     58  H   ALA A   9       3.524  38.918  23.898  0.00  0.00    +0.150 HD
BRANCH  57  59
ATOM     59  CA  ALA A   9       3.890  39.063  26.042  0.00  0.00    +0.149 C 
ATOM     60  CB  ALA A   9       3.684  37.518  26.080  0.00  0.00    +0.031 C 
BRANCH  59  61
ATOM     61  C   ALA A   9       5.280  39.456  26.566  0.00  0.00    +0.241 C 
ATOM     62  O   ALA A   9       5.458  39.761  27.770  0.00  0.00    -0.273 OA
ATOM     63  N   LEU A  10       6.271  39.411  25.677  0.00  0.00    -0.298 N 
ATOM     64  H   LEU A  10       6.073  39.018  24.735  0.00  0.00    +0.150 HD
BRANCH  63  65
ATOM     65  CA  LEU A  10       7.642  39.893  25.965  0.00  0.00    +0.137 C 
BRANCH  65  66
ATOM     66  C   LEU A  10       7.648  41.399  26.260  0.00  0.00    +0.227 C 
ATOM     67  O   LEU A  10       8.270  41.842  27.246  0.00  0.00    -0.286 OA
ENDBRANCH  65  66
BRANCH  65  68
ATOM     68  CB  LEU A  10       8.580  39.511  24.829  0.00  0.00    +0.028 C 
BRANCH  68  69
ATOM     69  CG  LEU A  10       8.855  37.992  24.774  0.00  0.00    +0.002 C 
ATOM     70  CD2 LEU A  10       9.818  37.548  25.916  0.00  0.00    +0.000 C 
ATOM     71  CD1 LEU A  10       9.389  37.640  23.381  0.00  0.00    +0.000 C 
ENDBRANCH  68  69
ENDBRANCH  65  68
ENDBRANCH  63  65
ENDBRANCH  59  61
ENDBRANCH  57  59
ENDBRANCH  54  55
BRANCH  54  72
ATOM     72  CB  ASP A   8       1.818  41.204  22.608  0.00  0.00    +0.143 C 
BRANCH  72  73
ATOM     73  CG  ASP A   8       1.438  41.856  21.285  0.00  0.00    +0.367 C 
ATOM     74  OD2 ASP A   8       0.278  41.641  20.878  0.00  0.00    -0.246 OA
ATOM     75  OD1 ASP A   8       2.250  42.581  20.655  0.00  0.00    -0.246 OA
ENDBRANCH  72  73
ENDBRANCH  54  72
ENDBRANCH  52  54
ENDBRANCH  49  50
BRANCH  49  76
ATOM     76  CB  SER A   7       6.315  40.217  19.693  0.00  0.00    +0.166 C 
BRANCH  76  77
ATOM     77  OG  SER A   7       6.989  41.450  19.719  0.00  0.00    -0.380 OA
ATOM     78  H   SER A   7       7.035  41.819  18.802  0.00  0.00    +0.211 HD
ENDBRANCH  76  77
ENDBRANCH  49  76
ENDBRANCH  47  49
ENDBRANCH  44  45
BRANCH  44  79
ATOM     79  CB  SER A   6       5.704  35.116  21.331  0.00  0.00    +0.166 C 
BRANCH  79  80
ATOM     80  OG  SER A   6       5.145  33.802  21.448  0.00  0.00    -0.380 OA
ATOM     81  H   SER A   6       5.022  33.581  22.405  0.00  0.00    +0.211 HD
ENDBRANCH  79  80
ENDBRANCH  44  79
ENDBRANCH  42  44
ENDBRANCH   1  40
BRANCH   1  82
ATOM     82  CB  ASN A   5       0.485  35.968  20.692  0.00  0.00    +0.114 C 
BRANCH  82  83
ATOM     83  CG  ASN A   5      -0.929  36.187  20.133  0.00  0.00    +0.222 C 
ATOM     84  ND2 ASN A   5      -1.703  35.082  20.079  0.00  0.00    -0.329 N 
ATOM     85 HD21 ASN A   5      -1.330  34.169  20.409  0.00  0.00    +0.145 HD
ATOM     86 HD22 ASN A   5      -2.672  35.144  19.707  0.00  0.00    +0.145 HD
ATOM     87  OD1 ASN A   5      -1.339  37.306  19.746  0.00  0.00    -0.275 OA
ENDBRANCH  82  83
ENDBRANCH   1  82
TORSDOF 39
REMARK  Name = ../refined-set-2016/3qdd/3qdd_pocket.pdb
REMARK  215 active torsions:
REMARK  status: ('A' for Active; 'I' for Inactive)
REMARK    1  A    between atoms: _1  and  _3
REMARK    2  A    between atoms: _3  and  _4
REMARK    3  A    between atoms: _3  and  _6
REMARK    4  A    between atoms: _6  and  _7
REMARK    5  A    between atoms: _13  and  _15
REMARK    6  A    between atoms: _15  and  _16
REMARK    7  A    between atoms: _15  and  _18
REMARK    8  A    between atoms: _18  and  _19
REMARK    9  A    between atoms: _22  and  _24
REMARK   10  A    between atoms: _24  and  _25
REMARK   11  A    between atoms: _24  and  _27
REMARK   12  A    between atoms: _27  and  _28
REMARK   13  A    between atoms: _28  and  _29
REMARK   14  A    between atoms: _31  and  _33
REMARK   15  A    between atoms: _33  and  _34
REMARK   16  A    between atoms: _33  and  _36
REMARK   17  A    between atoms: _36  and  _37
REMARK   18  A    between atoms: _37  and  _38
REMARK   19  A    between atoms: _41  and  _43
REMARK   20  A    between atoms: _43  and  _44
REMARK   21  A    between atoms: _43  and  _46
REMARK   22  A    between atoms: _46  and  _47
REMARK   23  A    between atoms: _50  and  _52
REMARK   24  A    between atoms: _52  and  _53
REMARK   25  A    between atoms: _52  and  _55
REMARK   26  A    between atoms: _55  and  _56
REMARK   27  A    between atoms: _59  and  _61
REMARK   28  A    between atoms: _61  and  _62
REMARK   29  A    between atoms: _61  and  _64
REMARK   30  A    between atoms: _64  and  _65
REMARK   31  A    between atoms: _67  and  _69
REMARK   32  A    between atoms: _69  and  _70
REMARK   33  A    between atoms: _69  and  _72
REMARK   34  A    between atoms: _72  and  _73
REMARK   35  A    between atoms: _78  and  _80
REMARK   36  A    between atoms: _80  and  _81
REMARK   37  A    between atoms: _80  and  _83
REMARK   38  A    between atoms: _83  and  _84
REMARK   39  A    between atoms: _86  and  _88
REMARK   40  A    between atoms: _88  and  _89
REMARK   41  A    between atoms: _88  and  _91
REMARK   42  A    between atoms: _91  and  _92
REMARK   43  A    between atoms: _94  and  _96
REMARK   44  A    between atoms: _96  and  _97
REMARK   45  A    between atoms: _96  and  _99
REMARK   46  A    between atoms: _99  and  _100
REMARK   47  A    between atoms: _103  and  _105
REMARK   48  A    between atoms: _105  and  _106
REMARK   49  A    between atoms: _109  and  _111
REMARK   50  A    between atoms: _111  and  _112
REMARK   51  A    between atoms: _111  and  _114
REMARK   52  A    between atoms: _114  and  _115
REMARK   53  A    between atoms: _118  and  _120
REMARK   54  A    between atoms: _120  and  _121
REMARK   55  A    between atoms: _120  and  _123
REMARK   56  A    between atoms: _123  and  _124
REMARK   57  A    between atoms: _124  and  _125
REMARK   58  A    between atoms: _125  and  _126
REMARK   59  A    between atoms: _126  and  _127
REMARK   60  A    between atoms: _131  and  _133
REMARK   61  A    between atoms: _133  and  _134
REMARK   62  A    between atoms: _133  and  _136
REMARK   63  A    between atoms: _136  and  _137
REMARK   64  A    between atoms: _140  and  _142
REMARK   65  A    between atoms: _142  and  _143
REMARK   66  A    between atoms: _142  and  _145
REMARK   67  A    between atoms: _145  and  _146
REMARK   68  A    between atoms: _149  and  _151
REMARK   69  A    between atoms: _151  and  _152
REMARK   70  A    between atoms: _151  and  _154
REMARK   71  A    between atoms: _157  and  _159
REMARK   72  A    between atoms: _159  and  _160
REMARK   73  A    between atoms: _159  and  _162
REMARK   74  A    between atoms: _162  and  _163
REMARK   75  A    between atoms: _166  and  _168
REMARK   76  A    between atoms: _168  and  _169
REMARK   77  A    between atoms: _168  and  _171
REMARK   78  A    between atoms: _171  and  _172
REMARK   79  A    between atoms: _175  and  _177
REMARK   80  A    between atoms: _177  and  _178
REMARK   81  A    between atoms: _180  and  _182
REMARK   82  A    between atoms: _182  and  _183
REMARK   83  A    between atoms: _182  and  _185
REMARK   84  A    between atoms: _185  and  _186
REMARK   85  A    between atoms: _189  and  _191
REMARK   86  A    between atoms: _191  and  _192
REMARK   87  A    between atoms: _194  and  _196
REMARK   88  A    between atoms: _196  and  _197
REMARK   89  A    between atoms: _196  and  _199
REMARK   90  A    between atoms: _199  and  _200
REMARK   91  A    between atoms: _200  and  _201
REMARK   92  A    between atoms: _203  and  _205
REMARK   93  A    between atoms: _205  and  _206
REMARK   94  A    between atoms: _205  and  _208
REMARK   95  A    between atoms: _208  and  _209
REMARK   96  A    between atoms: _212  and  _214
REMARK   97  A    between atoms: _214  and  _215
REMARK   98  A    between atoms: _214  and  _217
REMARK   99  A    between atoms: _217  and  _218
REMARK  100  A    between atoms: _221  and  _223
REMARK  101  A    between atoms: _223  and  _224
REMARK  102  A    between atoms: _223  and  _226
REMARK  103  A    between atoms: _226  and  _227
REMARK  104  A    between atoms: _230  and  _232
REMARK  105  A    between atoms: _232  and  _233
REMARK  106  A    between atoms: _232  and  _235
REMARK  107  A    between atoms: _235  and  _236
REMARK  108  A    between atoms: _239  and  _241
REMARK  109  A    between atoms: _241  and  _242
REMARK  110  A    between atoms: _241  and  _244
REMARK  111  A    between atoms: _244  and  _245
REMARK  112  A    between atoms: _250  and  _252
REMARK  113  A    between atoms: _252  and  _253
REMARK  114  A    between atoms: _252  and  _255
REMARK  115  A    between atoms: _255  and  _256
REMARK  116  A    between atoms: _259  and  _261
REMARK  117  A    between atoms: _261  and  _262
REMARK  118  A    between atoms: _264  and  _266
REMARK  119  A    between atoms: _266  and  _267
REMARK  120  A    between atoms: _270  and  _272
REMARK  121  A    between atoms: _272  and  _273
REMARK  122  A    between atoms: _275  and  _277
REMARK  123  A    between atoms: _277  and  _278
REMARK  124  A    between atoms: _277  and  _280
REMARK  125  A    between atoms: _283  and  _285
REMARK  126  A    between atoms: _285  and  _286
REMARK  127  A    between atoms: _288  and  _290
REMARK  128  A    between atoms: _290  and  _291
REMARK  129  A    between atoms: _290  and  _293
REMARK  130  A    between atoms: _293  and  _294
REMARK  131  A    between atoms: _300  and  _302
REMARK  132  A    between atoms: _302  and  _303
REMARK  133  A    between atoms: _302  and  _305
REMARK  134  A    between atoms: _305  and  _306
REMARK  135  A    between atoms: _311  and  _312
REMARK  136  A    between atoms: _314  and  _316
REMARK  137  A    between atoms: _316  and  _317
REMARK  138  A    between atoms: _316  and  _319
REMARK  139  A    between atoms: _319  and  _320
REMARK  140  A    between atoms: _325  and  _326
REMARK  141  A    between atoms: _328  and  _330
REMARK  142  A    between atoms: _330  and  _331
REMARK  143  A    between atoms: _330  and  _333
REMARK  144  A    between atoms: _336  and  _338
REMARK  145  A    between atoms: _338  and  _339
REMARK  146  A    between atoms: _338  and  _341
REMARK  147  A    between atoms: _341  and  _342
REMARK  148  A    between atoms: _345  and  _347
REMARK  149  A    between atoms: _347  and  _348
REMARK  150  A    between atoms: _347  and  _350
REMARK  151  A    between atoms: _353  and  _355
REMARK  152  A    between atoms: _355  and  _356
REMARK  153  A    between atoms: _355  and  _358
REMARK  154  A    between atoms: _358  and  _359
REMARK  155  A    between atoms: _362  and  _364
REMARK  156  A    between atoms: _364  and  _365
REMARK  157  A    between atoms: _364  and  _367
REMARK  158  A    between atoms: _367  and  _368
REMARK  159  A    between atoms: _371  and  _373
REMARK  160  A    between atoms: _373  and  _374
REMARK  161  A    between atoms: _373  and  _376
REMARK  162  A    between atoms: _376  and  _377
REMARK  163  A    between atoms: _377  and  _378
REMARK  164  A    between atoms: _378  and  _379
REMARK  165  A    between atoms: _379  and  _380
REMARK  166  A    between atoms: _384  and  _386
REMARK  167  A    between atoms: _386  and  _387
REMARK  168  A    between atoms: _386  and  _389
REMARK  169  A    between atoms: _389  and  _390
REMARK  170  A    between atoms: _395  and  _397
REMARK  171  A    between atoms: _397  and  _398
REMARK  172  A    between atoms: _401  and  _403
REMARK  173  A    between atoms: _403  and  _404
REMARK  174  A    between atoms: _403  and  _406
REMARK  175  A    between atoms: _406  and  _407
REMARK  176  A    between atoms: _417  and  _419
REMARK  177  A    between atoms: _419  and  _420
REMARK  178  A    between atoms: _419  and  _422
REMARK  179  A    between atoms: _422  and  _423
REMARK  180  A    between atoms: _423  and  _424
REMARK  181  A    between atoms: _427  and  _429
REMARK  182  A    between atoms: _429  and  _430
REMARK  183  A    between atoms: _429  and  _432
REMARK  184  A    between atoms: _432  and  _433
REMARK  185  A    between atoms: _435  and  _437
REMARK  186  A    between atoms: _437  and  _438
REMARK  187  A    between atoms: _437  and  _440
REMARK  188  A    between atoms: _440  and  _441
REMARK  189  A    between atoms: _447  and  _449
REMARK  190  A    between atoms: _449  and  _450
REMARK  191  A    between atoms: _449  and  _452
REMARK  192  A    between atoms: _452  and  _453
REMARK  193  A    between atoms: _456  and  _458
REMARK  194  A    between atoms: _458  and  _459
REMARK  195  A    between atoms: _458  and  _461
REMARK  196  A    between atoms: _464  and  _466
REMARK  197  A    between atoms: _466  and  _467
REMARK  198  A    between atoms: _469  and  _471
REMARK  199  A    between atoms: _471  and  _472
REMARK  200  A    between atoms: _471  and  _474
REMARK  201  A    between atoms: _474  and  _475
REMARK  202  A    between atoms: _478  and  _480
REMARK  203  A    between atoms: _480  and  _481
REMARK  204  A    between atoms: _480  and  _483
REMARK  205  A    between atoms: _483  and  _484
REMARK  206  A    between atoms: _484  and  _485
REMARK  207  A    between atoms: _485  and  _486
REMARK  208  A    between atoms: _486  and  _487
REMARK  209  A    between atoms: _491  and  _493
REMARK  210  A    between atoms: _493  and  _494
REMARK  211  A    between atoms: _493  and  _496
REMARK  212  A    between atoms: _499  and  _501
REMARK  213  A    between atoms: _501  and  _502
REMARK  214  A    between atoms: _501  and  _504
REMARK  215  A    between atoms: _504  and  _505
REMARK                            x       y       z     vdW  Elec       q    Type
REMARK                         _______ _______ _______ _____ _____    ______ ____
ROOT
ATOM      1  CA  LYS A   1       4.587  43.318  28.727  0.00  0.00    +0.145 C 
ENDROOT
BRANCH   1   2
ATOM      2  C   LYS A   1       5.490  43.066  29.927  0.00  0.00    +0.238 C 
ATOM      3  O   LYS A   1       5.536  43.883  30.864  0.00  0.00    -0.274 OA
ATOM      4  N   ILE A   2       6.204  41.938  29.916  0.00  0.00    -0.298 N 
ATOM      5  H   ILE A   2       6.127  41.273  29.120  0.00  0.00    +0.150 HD
BRANCH   4   6
ATOM      6  CA  ILE A   2       7.104  41.649  31.050  0.00  0.00    +0.137 C 
BRANCH   6   7
ATOM      7  CB  ILE A   2       7.599  40.171  31.118  0.00  0.00    +0.026 C 
ATOM      8  CG2 ILE A   2       8.449  39.803  29.873  0.00  0.00    +0.002 C 
BRANCH   7   9
ATOM      9  CG1 ILE A   2       8.300  39.909  32.465  0.00  0.00    +0.002 C 
ATOM     10  CD1 ILE A   2       7.327  39.936  33.682  0.00  0.00    +0.000 C 
ENDBRANCH   7   9
ENDBRANCH   6   7
BRANCH   6  11
ATOM     11  C   ILE A   2       8.279  42.652  31.083  0.00  0.00    +0.227 C 
ATOM     12  O   ILE A   2       8.694  43.082  32.165  0.00  0.00    -0.286 OA
ENDBRANCH   6  11
ENDBRANCH   4   6
ENDBRANCH   1   2
BRANCH   1  13
ATOM     13  N   LYS A   1       5.287  43.099  27.461  0.00  0.00    -0.238 NA
ATOM     14  H   LYS A   1       4.997  42.314  26.844  0.00  0.00    +0.142 HD
ENDBRANCH   1  13
BRANCH   1  15
ATOM     15  CB  LYS A   1       3.320  42.463  28.818  0.00  0.00    +0.026 C 
BRANCH  15  16
ATOM     16  CG  LYS A   1       2.194  42.975  27.923  0.00  0.00    -0.000 C 
BRANCH  16  17
ATOM     17  CD  LYS A   1       0.912  42.124  27.968  0.00  0.00    -0.024 C 
BRANCH  17  18
ATOM     18  CE  LYS A   1       0.121  42.368  26.664  0.00  0.00    -0.086 C 
BRANCH  18  19
ATOM     19  NZ  LYS A   1      -1.034  41.471  26.443  0.00  0.00    +0.380 N 
ATOM     20  HZ1 LYS A   1      -1.712  41.582  27.224  0.00  0.00    -0.089 HD
ATOM     21  HZ2 LYS A   1      -0.704  40.485  26.407  0.00  0.00    -0.089 HD
ATOM     22  HZ3 LYS A   1      -1.495  41.717  25.544  0.00  0.00    -0.089 HD
ENDBRANCH  18  19
ENDBRANCH  17  18
ENDBRANCH  16  17
ENDBRANCH  15  16
ENDBRANCH   1  15
TORSDOF 11
REMARK  Name = ../refined-set-2016/3qdd/3qdd_pocket.pdb
REMARK  215 active torsions:
REMARK  status: ('A' for Active; 'I' for Inactive)
REMARK    1  A    between atoms: _1  and  _3
REMARK    2  A    between atoms: _3  and  _4
REMARK    3  A    between atoms: _3  and  _6
REMARK    4  A    between atoms: _6  and  _7
REMARK    5  A    between atoms: _13  and  _15
REMARK    6  A    between atoms: _15  and  _16
REMARK    7  A    between atoms: _15  and  _18
REMARK    8  A    between atoms: _18  and  _19
REMARK    9  A    between atoms: _22  and  _24
REMARK   10  A    between atoms: _24  and  _25
REMARK   11  A    between atoms: _24  and  _27
REMARK   12  A    between atoms: _27  and  _28
REMARK   13  A    between atoms: _28  and  _29
REMARK   14  A    between atoms: _31  and  _33
REMARK   15  A    between atoms: _33  and  _34
REMARK   16  A    between atoms: _33  and  _36
REMARK   17  A    between atoms: _36  and  _37
REMARK   18  A    between atoms: _37  and  _38
REMARK   19  A    between atoms: _41  and  _43
REMARK   20  A    between atoms: _43  and  _44
REMARK   21  A    between atoms: _43  and  _46
REMARK   22  A    between atoms: _46  and  _47
REMARK   23  A    between atoms: _50  and  _52
REMARK   24  A    between atoms: _52  and  _53
REMARK   25  A    between atoms: _52  and  _55
REMARK   26  A    between atoms: _55  and  _56
REMARK   27  A    between atoms: _59  and  _61
REMARK   28  A    between atoms: _61  and  _62
REMARK   29  A    between atoms: _61  and  _64
REMARK   30  A    between atoms: _64  and  _65
REMARK   31  A    between atoms: _67  and  _69
REMARK   32  A    between atoms: _69  and  _70
REMARK   33  A    between atoms: _69  and  _72
REMARK   34  A    between atoms: _72  and  _73
REMARK   35  A    between atoms: _78  and  _80
REMARK   36  A    between atoms: _80  and  _81
REMARK   37  A    between atoms: _80  and  _83
REMARK   38  A    between atoms: _83  and  _84
REMARK   39  A    between atoms: _86  and  _88
REMARK   40  A    between atoms: _88  and  _89
REMARK   41  A    between atoms: _88  and  _91
REMARK   42  A    between atoms: _91  and  _92
REMARK   43  A    between atoms: _94  and  _96
REMARK   44  A    between atoms: _96  and  _97
REMARK   45  A    between atoms: _96  and  _99
REMARK   46  A    between atoms: _99  and  _100
REMARK   47  A    between atoms: _103  and  _105
REMARK   48  A    between atoms: _105  and  _106
REMARK   49  A    between atoms: _109  and  _111
REMARK   50  A    between atoms: _111  and  _112
REMARK   51  A    between atoms: _111  and  _114
REMARK   52  A    between atoms: _114  and  _115
REMARK   53  A    between atoms: _118  and  _120
REMARK   54  A    between atoms: _120  and  _121
REMARK   55  A    between atoms: _120  and  _123
REMARK   56  A    between atoms: _123  and  _124
REMARK   57  A    between atoms: _124  and  _125
REMARK   58  A    between atoms: _125  and  _126
REMARK   59  A    between atoms: _126  and  _127
REMARK   60  A    between atoms: _131  and  _133
REMARK   61  A    between atoms: _133  and  _134
REMARK   62  A    between atoms: _133  and  _136
REMARK   63  A    between atoms: _136  and  _137
REMARK   64  A    between atoms: _140  and  _142
REMARK   65  A    between atoms: _142  and  _143
REMARK   66  A    between atoms: _142  and  _145
REMARK   67  A    between atoms: _145  and  _146
REMARK   68  A    between atoms: _149  and  _151
REMARK   69  A    between atoms: _151  and  _152
REMARK   70  A    between atoms: _151  and  _154
REMARK   71  A    between atoms: _157  and  _159
REMARK   72  A    between atoms: _159  and  _160
REMARK   73  A    between atoms: _159  and  _162
REMARK   74  A    between atoms: _162  and  _163
REMARK   75  A    between atoms: _166  and  _168
REMARK   76  A    between atoms: _168  and  _169
REMARK   77  A    between atoms: _168  and  _171
REMARK   78  A    between atoms: _171  and  _172
REMARK   79  A    between atoms: _175  and  _177
REMARK   80  A    between atoms: _177  and  _178
REMARK   81  A    between atoms: _180  and  _182
REMARK   82  A    between atoms: _182  and  _183
REMARK   83  A    between atoms: _182  and  _185
REMARK   84  A    between atoms: _185  and  _186
REMARK   85  A    between atoms: _189  and  _191
REMARK   86  A    between atoms: _191  and  _192
REMARK   87  A    between atoms: _194  and  _196
REMARK   88  A    between atoms: _196  and  _197
REMARK   89  A    between atoms: _196  and  _199
REMARK   90  A    between atoms: _199  and  _200
REMARK   91  A    between atoms: _200  and  _201
REMARK   92  A    between atoms: _203  and  _205
REMARK   93  A    between atoms: _205  and  _206
REMARK   94  A    between atoms: _205  and  _208
REMARK   95  A    between atoms: _208  and  _209
REMARK   96  A    between atoms: _212  and  _214
REMARK   97  A    between atoms: _214  and  _215
REMARK   98  A    between atoms: _214  and  _217
REMARK   99  A    between atoms: _217  and  _218
REMARK  100  A    between atoms: _221  and  _223
REMARK  101  A    between atoms: _223  and  _224
REMARK  102  A    between atoms: _223  and  _226
REMARK  103  A    between atoms: _226  and  _227
REMARK  104  A    between atoms: _230  and  _232
REMARK  105  A    between atoms: _232  and  _233
REMARK  106  A    between atoms: _232  and  _235
REMARK  107  A    between atoms: _235  and  _236
REMARK  108  A    between atoms: _239  and  _241
REMARK  109  A    between atoms: _241  and  _242
REMARK  110  A    between atoms: _241  and  _244
REMARK  111  A    between atoms: _244  and  _245
REMARK  112  A    between atoms: _250  and  _252
REMARK  113  A    between atoms: _252  and  _253
REMARK  114  A    between atoms: _252  and  _255
REMARK  115  A    between atoms: _255  and  _256
REMARK  116  A    between atoms: _259  and  _261
REMARK  117  A    between atoms: _261  and  _262
REMARK  118  A    between atoms: _264  and  _266
REMARK  119  A    between atoms: _266  and  _267
REMARK  120  A    between atoms: _270  and  _272
REMARK  121  A    between atoms: _272  and  _273
REMARK  122  A    between atoms: _275  and  _277
REMARK  123  A    between atoms: _277  and  _278
REMARK  124  A    between atoms: _277  and  _280
REMARK  125  A    between atoms: _283  and  _285
REMARK  126  A    between atoms: _285  and  _286
REMARK  127  A    between atoms: _288  and  _290
REMARK  128  A    between atoms: _290  and  _291
REMARK  129  A    between atoms: _290  and  _293
REMARK  130  A    between atoms: _293  and  _294
REMARK  131  A    between atoms: _300  and  _302
REMARK  132  A    between atoms: _302  and  _303
REMARK  133  A    between atoms: _302  and  _305
REMARK  134  A    between atoms: _305  and  _306
REMARK  135  A    between atoms: _311  and  _312
REMARK  136  A    between atoms: _314  and  _316
REMARK  137  A    between atoms: _316  and  _317
REMARK  138  A    between atoms: _316  and  _319
REMARK  139  A    between atoms: _319  and  _320
REMARK  140  A    between atoms: _325  and  _326
REMARK  141  A    between atoms: _328  and  _330
REMARK  142  A    between atoms: _330  and  _331
REMARK  143  A    between atoms: _330  and  _333
REMARK  144  A    between atoms: _336  and  _338
REMARK  145  A    between atoms: _338  and  _339
REMARK  146  A    between atoms: _338  and  _341
REMARK  147  A    between atoms: _341  and  _342
REMARK  148  A    between atoms: _345  and  _347
REMARK  149  A    between atoms: _347  and  _348
REMARK  150  A    between atoms: _347  and  _350
REMARK  151  A    between atoms: _353  and  _355
REMARK  152  A    between atoms: _355  and  _356
REMARK  153  A    between atoms: _355  and  _358
REMARK  154  A    between atoms: _358  and  _359
REMARK  155  A    between atoms: _362  and  _364
REMARK  156  A    between atoms: _364  and  _365
REMARK  157  A    between atoms: _364  and  _367
REMARK  158  A    between atoms: _367  and  _368
REMARK  159  A    between atoms: _371  and  _373
REMARK  160  A    between atoms: _373  and  _374
REMARK  161  A    between atoms: _373  and  _376
REMARK  162  A    between atoms: _376  and  _377
REMARK  163  A    between atoms: _377  and  _378
REMARK  164  A    between atoms: _378  and  _379
REMARK  165  A    between atoms: _379  and  _380
REMARK  166  A    between atoms: _384  and  _386
REMARK  167  A    between atoms: _386  and  _387
REMARK  168  A    between atoms: _386  and  _389
REMARK  169  A    between atoms: _389  and  _390
REMARK  170  A    between atoms: _395  and  _397
REMARK  171  A    between atoms: _397  and  _398
REMARK  172  A    between atoms: _401  and  _403
REMARK  173  A    between atoms: _403  and  _404
REMARK  174  A    between atoms: _403  and  _406
REMARK  175  A    between atoms: _406  and  _407
REMARK  176  A    between atoms: _417  and  _419
REMARK  177  A    between atoms: _419  and  _420
REMARK  178  A    between atoms: _419  and  _422
REMARK  179  A    between atoms: _422  and  _423
REMARK  180  A    between atoms: _423  and  _424
REMARK  181  A    between atoms: _427  and  _429
REMARK  182  A    between atoms: _429  and  _430
REMARK  183  A    between atoms: _429  and  _432
REMARK  184  A    between atoms: _432  and  _433
REMARK  185  A    between atoms: _435  and  _437
REMARK  186  A    between atoms: _437  and  _438
REMARK  187  A    between atoms: _437  and  _440
REMARK  188  A    between atoms: _440  and  _441
REMARK  189  A    between atoms: _447  and  _449
REMARK  190  A    between atoms: _449  and  _450
REMARK  191  A    between atoms: _449  and  _452
REMARK  192  A    between atoms: _452  and  _453
REMARK  193  A    between atoms: _456  and  _458
REMARK  194  A    between atoms: _458  and  _459
REMARK  195  A    between atoms: _458  and  _461
REMARK  196  A    between atoms: _464  and  _466
REMARK  197  A    between atoms: _466  and  _467
REMARK  198  A    between atoms: _469  and  _471
REMARK  199  A    between atoms: _471  and  _472
REMARK  200  A    between atoms: _471  and  _474
REMARK  201  A    between atoms: _474  and  _475
REMARK  202  A    between atoms: _478  and  _480
REMARK  203  A    between atoms: _480  and  _481
REMARK  204  A    between atoms: _480  and  _483
REMARK  205  A    between atoms: _483  and  _484
REMARK  206  A    between atoms: _484  and  _485
REMARK  207  A    between atoms: _485  and  _486
REMARK  208  A    between atoms: _486  and  _487
REMARK  209  A    between atoms: _491  and  _493
REMARK  210  A    between atoms: _493  and  _494
REMARK  211  A    between atoms: _493  and  _496
REMARK  212  A    between atoms: _499  and  _501
REMARK  213  A    between atoms: _501  and  _502
REMARK  214  A    between atoms: _501  and  _504
REMARK  215  A    between atoms: _504  and  _505
REMARK                            x       y       z     vdW  Elec       q    Type
REMARK                         _______ _______ _______ _____ _____    ______ ____
ROOT
ATOM      1  C   THR A   4       9.081  35.294  28.269  0.00  0.00    +0.243 C 
ATOM      2  O   THR A   4       9.568  36.086  29.030  0.00  0.00    -0.273 OA
ATOM      3  N   GLY A   5       7.880  35.475  27.726  0.00  0.00    -0.295 N 
ATOM      4  H   GLY A   5       7.532  34.782  27.033  0.00  0.00    +0.150 HD
ENDROOT
BRANCH   3   5
ATOM      5  CA  GLY A   5       7.038  36.610  28.069  0.00  0.00    +0.176 C 
BRANCH   5   6
ATOM      6  C   GLY A   5       6.376  36.517  29.437  0.00  0.00    +0.243 C 
ATOM      7  O   GLY A   5       6.756  35.714  30.311  0.00  0.00    -0.273 OA
ATOM      8  N   ILE A   6       5.331  37.338  29.617  0.00  0.00    -0.297 N 
ATOM      9  H   ILE A   6       4.951  37.865  28.805  0.00  0.00    +0.150 HD
BRANCH   8  10
ATOM     10  CA  ILE A   6       4.720  37.505  30.923  0.00  0.00    +0.149 C 
BRANCH  10  11
ATOM     11  C   ILE A   6       3.979  36.220  31.376  0.00  0.00    +0.241 C 
ATOM     12  O   ILE A   6       3.777  36.000  32.562  0.00  0.00    -0.273 OA
ATOM     13  N   GLY A   7       3.554  35.401  30.411  0.00  0.00    -0.295 N 
ATOM     14  H   GLY A   7       3.778  35.620  29.419  0.00  0.00    +0.150 HD
BRANCH  13  15
ATOM     15  CA  GLY A   7       2.775  34.196  30.725  0.00  0.00    +0.176 C 
BRANCH  15  16
ATOM     16  C   GLY A   7       1.327  34.546  31.086  0.00  0.00    +0.243 C 
ATOM     17  N   MET A   8       0.565  33.501  31.421  0.00  0.00    -0.297 N 
ATOM     18  H   MET A   8       1.014  32.565  31.488  0.00  0.00    +0.150 HD
ATOM     19  O   GLY A   7       0.901  35.726  31.015  0.00  0.00    -0.273 OA
BRANCH  17  20
ATOM     20  CA  MET A   8      -0.882  33.603  31.702  0.00  0.00    +0.149 C 
BRANCH  20  21
ATOM     21  C   MET A   8      -1.210  32.970  33.049  0.00  0.00    +0.241 C 
ATOM     22  N   THR A   9      -2.064  33.659  33.778  0.00  0.00    -0.296 N 
ATOM     23  H   THR A   9      -2.397  34.574  33.412  0.00  0.00    +0.150 HD
ATOM     24  O   MET A   8      -0.691  31.905  33.409  0.00  0.00    -0.273 OA
BRANCH  22  25
ATOM     25  CA  THR A   9      -2.571  33.205  35.079  0.00  0.00    +0.164 C 
BRANCH  25  26
ATOM     26  C   THR A   9      -3.719  32.191  34.836  0.00  0.00    +0.229 C 
ATOM     27  O   THR A   9      -4.263  32.096  33.722  0.00  0.00    -0.286 OA
ENDBRANCH  25  26
BRANCH  25  28
ATOM     28  CB  THR A   9      -3.136  34.392  35.878  0.00  0.00    +0.136 C 
ATOM     29  CG2 THR A   9      -2.055  35.432  36.091  0.00  0.00    +0.034 C 
BRANCH  28  30
ATOM     30  OG1 THR A   9      -4.255  34.943  35.161  0.00  0.00    -0.382 OA
ATOM     31  HG1 THR A   9      -4.626  35.708  35.668  0.00  0.00    +0.210 HD
ENDBRANCH  28  30
ENDBRANCH  25  28
ENDBRANCH  22  25
ENDBRANCH  20  21
BRANCH  20  32
ATOM     32  CB  MET A   8      -1.716  32.899  30.624  0.00  0.00    +0.041 C 
BRANCH  32  33
ATOM     33  CG  MET A   8      -1.631  33.599  29.283  0.00  0.00    +0.060 C 
BRANCH  33  34
ATOM     34  SD  MET A   8      -2.215  32.648  27.886  0.00  0.00    -0.139 S 
ATOM     35  CE  MET A   8      -0.792  31.506  27.776  0.00  0.00    +0.069 C 
ENDBRANCH  33  34
ENDBRANCH  32  33
ENDBRANCH  20  32
ENDBRANCH  17  20
ENDBRANCH  15  16
ENDBRANCH  13  15
ENDBRANCH  10  11
BRANCH  10  36
ATOM     36  CB  ILE A   6       3.743  38.759  30.924  0.00  0.00    +0.027 C 
ATOM     37  CG2 ILE A   6       2.596  38.549  29.922  0.00  0.00    +0.002 C 
BRANCH  36  38
ATOM     38  CG1 ILE A   6       3.407  39.171  32.382  0.00  0.00    +0.002 C 
ATOM     39  CD1 ILE A   6       3.089  40.672  32.527  0.00  0.00    +0.000 C 
ENDBRANCH  36  38
ENDBRANCH  10  36
ENDBRANCH   8  10
ENDBRANCH   5   6
ENDBRANCH   3   5
BRANCH   1  40
ATOM     40  CA  THR A   4       9.791  33.975  27.912  0.00  0.00    +0.176 C 
BRANCH  40  43
ATOM     41  C   ASP A   3       8.733  32.657  26.158  0.00  0.00    +0.241 C 
ATOM     42  O   ASP A   3       8.175  31.885  26.945  0.00  0.00    -0.273 OA
ATOM     43  N   THR A   4       9.541  33.633  26.526  0.00  0.00    -0.295 N 
ATOM     44  H   THR A   4      10.022  34.183  25.786  0.00  0.00    +0.150 HD
BRANCH  41  45
ATOM     45  CA  ASP A   3       8.527  32.554  24.646  0.00  0.00    +0.160 C 
BRANCH  45  47
ATOM     46  C   VAL A   2       8.474  30.625  23.197  0.00  0.00    +0.241 C 
ATOM     47  N   ASP A   3       8.026  31.263  24.270  0.00  0.00    -0.297 N 
ATOM     48  H   ASP A   3       7.292  30.815  24.855  0.00  0.00    +0.150 HD
ATOM     49  O   VAL A   2       9.277  31.130  22.390  0.00  0.00    -0.273 OA
BRANCH  46  50
ATOM     50  CA  VAL A   2       8.070  29.162  23.069  0.00  0.00    +0.148 C 
BRANCH  50  53
ATOM     51  C   ILE A   1       6.453  28.665  21.298  0.00  0.00    +0.238 C 
ATOM     52  O   ILE A   1       5.486  28.669  22.039  0.00  0.00    -0.274 OA
ATOM     53  N   VAL A   2       7.683  28.915  21.698  0.00  0.00    -0.297 N 
ATOM     54  H   VAL A   2       8.430  28.936  20.975  0.00  0.00    +0.150 HD
BRANCH  51  55
ATOM     55  CA  ILE A   1       6.303  28.342  19.777  0.00  0.00    +0.145 C 
BRANCH  55  56
ATOM     56  N   ILE A   1       5.868  26.953  19.716  0.00  0.00    -0.238 NA
ATOM     57  H   ILE A   1       4.895  26.722  20.002  0.00  0.00    +0.142 HD
ENDBRANCH  55  56
BRANCH  55  58
ATOM     58  CB  ILE A   1       5.298  29.351  19.121  0.00  0.00    +0.025 C 
ATOM     59  CG2 ILE A   1       5.792  30.787  19.334  0.00  0.00    +0.002 C 
BRANCH  58  60
ATOM     60  CG1 ILE A   1       5.067  29.061  17.632  0.00  0.00    +0.002 C 
ATOM     61  CD1 ILE A   1       4.141  27.900  17.362  0.00  0.00    +0.000 C 
ENDBRANCH  58  60
ENDBRANCH  55  58
ENDBRANCH  51  55
ENDBRANCH  50  53
BRANCH  50  62
ATOM     62  CB  VAL A   2       9.285  28.295  23.496  0.00  0.00    +0.027 C 
ATOM     63  CG2 VAL A   2       9.618  28.540  24.992  0.00  0.00    +0.002 C 
ATOM     64  CG1 VAL A   2       9.105  26.782  23.190  0.00  0.00    +0.002 C 
ENDBRANCH  50  62
ENDBRANCH  46  50
ENDBRANCH  45  47
BRANCH  45  65
ATOM     65  CB  ASP A   3       7.596  33.661  24.132  0.00  0.00    +0.143 C 
BRANCH  65  66
ATOM     66  CG  ASP A   3       6.255  33.689  24.836  0.00  0.00    +0.367 C 
ATOM     67  OD2 ASP A   3       6.255  34.010  26.053  0.00  0.00    -0.246 OA
ATOM     68  OD1 ASP A   3       5.213  33.399  24.202  0.00  0.00    -0.246 OA
ENDBRANCH  65  66
ENDBRANCH  45  65
ENDBRANCH  41  45
ENDBRANCH  40  43
BRANCH  40  69
ATOM     69  CB  THR A   4      11.289  34.016  28.176  0.00  0.00    +0.137 C 
ATOM     70  CG2 THR A   4      11.882  32.621  28.031  0.00  0.00    +0.034 C 
BRANCH  69  71
ATOM     71  OG1 THR A   4      11.906  34.923  27.278  0.00  0.00    -0.382 OA
ATOM     72  HG1 THR A   4      12.880  34.947  27.453  0.00  0.00    +0.210 HD
ENDBRANCH  69  71
ENDBRANCH  40  69
ENDBRANCH   1  40
TORSDOF 32
REMARK  Name = ../refined-set-2016/3qdd/3qdd_pocket.pdb
REMARK  215 active torsions:
REMARK  status: ('A' for Active; 'I' for Inactive)
REMARK    1  A    between atoms: _1  and  _3
REMARK    2  A    between atoms: _3  and  _4
REMARK    3  A    between atoms: _3  and  _6
REMARK    4  A    between atoms: _6  and  _7
REMARK    5  A    between atoms: _13  and  _15
REMARK    6  A    between atoms: _15  and  _16
REMARK    7  A    between atoms: _15  and  _18
REMARK    8  A    between atoms: _18  and  _19
REMARK    9  A    between atoms: _22  and  _24
REMARK   10  A    between atoms: _24  and  _25
REMARK   11  A    between atoms: _24  and  _27
REMARK   12  A    between atoms: _27  and  _28
REMARK   13  A    between atoms: _28  and  _29
REMARK   14  A    between atoms: _31  and  _33
REMARK   15  A    between atoms: _33  and  _34
REMARK   16  A    between atoms: _33  and  _36
REMARK   17  A    between atoms: _36  and  _37
REMARK   18  A    between atoms: _37  and  _38
REMARK   19  A    between atoms: _41  and  _43
REMARK   20  A    between atoms: _43  and  _44
REMARK   21  A    between atoms: _43  and  _46
REMARK   22  A    between atoms: _46  and  _47
REMARK   23  A    between atoms: _50  and  _52
REMARK   24  A    between atoms: _52  and  _53
REMARK   25  A    between atoms: _52  and  _55
REMARK   26  A    between atoms: _55  and  _56
REMARK   27  A    between atoms: _59  and  _61
REMARK   28  A    between atoms: _61  and  _62
REMARK   29  A    between atoms: _61  and  _64
REMARK   30  A    between atoms: _64  and  _65
REMARK   31  A    between atoms: _67  and  _69
REMARK   32  A    between atoms: _69  and  _70
REMARK   33  A    between atoms: _69  and  _72
REMARK   34  A    between atoms: _72  and  _73
REMARK   35  A    between atoms: _78  and  _80
REMARK   36  A    between atoms: _80  and  _81
REMARK   37  A    between atoms: _80  and  _83
REMARK   38  A    between atoms: _83  and  _84
REMARK   39  A    between atoms: _86  and  _88
REMARK   40  A    between atoms: _88  and  _89
REMARK   41  A    between atoms: _88  and  _91
REMARK   42  A    between atoms: _91  and  _92
REMARK   43  A    between atoms: _94  and  _96
REMARK   44  A    between atoms: _96  and  _97
REMARK   45  A    between atoms: _96  and  _99
REMARK   46  A    between atoms: _99  and  _100
REMARK   47  A    between atoms: _103  and  _105
REMARK   48  A    between atoms: _105  and  _106
REMARK   49  A    between atoms: _109  and  _111
REMARK   50  A    between atoms: _111  and  _112
REMARK   51  A    between atoms: _111  and  _114
REMARK   52  A    between atoms: _114  and  _115
REMARK   53  A    between atoms: _118  and  _120
REMARK   54  A    between atoms: _120  and  _121
REMARK   55  A    between atoms: _120  and  _123
REMARK   56  A    between atoms: _123  and  _124
REMARK   57  A    between atoms: _124  and  _125
REMARK   58  A    between atoms: _125  and  _126
REMARK   59  A    between atoms: _126  and  _127
REMARK   60  A    between atoms: _131  and  _133
REMARK   61  A    between atoms: _133  and  _134
REMARK   62  A    between atoms: _133  and  _136
REMARK   63  A    between atoms: _136  and  _137
REMARK   64  A    between atoms: _140  and  _142
REMARK   65  A    between atoms: _142  and  _143
REMARK   66  A    between atoms: _142  and  _145
REMARK   67  A    between atoms: _145  and  _146
REMARK   68  A    between atoms: _149  and  _151
REMARK   69  A    between atoms: _151  and  _152
REMARK   70  A    between atoms: _151  and  _154
REMARK   71  A    between atoms: _157  and  _159
REMARK   72  A    between atoms: _159  and  _160
REMARK   73  A    between atoms: _159  and  _162
REMARK   74  A    between atoms: _162  and  _163
REMARK   75  A    between atoms: _166  and  _168
REMARK   76  A    between atoms: _168  and  _169
REMARK   77  A    between atoms: _168  and  _171
REMARK   78  A    between atoms: _171  and  _172
REMARK   79  A    between atoms: _175  and  _177
REMARK   80  A    between atoms: _177  and  _178
REMARK   81  A    between atoms: _180  and  _182
REMARK   82  A    between atoms: _182  and  _183
REMARK   83  A    between atoms: _182  and  _185
REMARK   84  A    between atoms: _185  and  _186
REMARK   85  A    between atoms: _189  and  _191
REMARK   86  A    between atoms: _191  and  _192
REMARK   87  A    between atoms: _194  and  _196
REMARK   88  A    between atoms: _196  and  _197
REMARK   89  A    between atoms: _196  and  _199
REMARK   90  A    between atoms: _199  and  _200
REMARK   91  A    between atoms: _200  and  _201
REMARK   92  A    between atoms: _203  and  _205
REMARK   93  A    between atoms: _205  and  _206
REMARK   94  A    between atoms: _205  and  _208
REMARK   95  A    between atoms: _208  and  _209
REMARK   96  A    between atoms: _212  and  _214
REMARK   97  A    between atoms: _214  and  _215
REMARK   98  A    between atoms: _214  and  _217
REMARK   99  A    between atoms: _217  and  _218
REMARK  100  A    between atoms: _221  and  _223
REMARK  101  A    between atoms: _223  and  _224
REMARK  102  A    between atoms: _223  and  _226
REMARK  103  A    between atoms: _226  and  _227
REMARK  104  A    between atoms: _230  and  _232
REMARK  105  A    between atoms: _232  and  _233
REMARK  106  A    between atoms: _232  and  _235
REMARK  107  A    between atoms: _235  and  _236
REMARK  108  A    between atoms: _239  and  _241
REMARK  109  A    between atoms: _241  and  _242
REMARK  110  A    between atoms: _241  and  _244
REMARK  111  A    between atoms: _244  and  _245
REMARK  112  A    between atoms: _250  and  _252
REMARK  113  A    between atoms: _252  and  _253
REMARK  114  A    between atoms: _252  and  _255
REMARK  115  A    between atoms: _255  and  _256
REMARK  116  A    between atoms: _259  and  _261
REMARK  117  A    between atoms: _261  and  _262
REMARK  118  A    between atoms: _264  and  _266
REMARK  119  A    between atoms: _266  and  _267
REMARK  120  A    between atoms: _270  and  _272
REMARK  121  A    between atoms: _272  and  _273
REMARK  122  A    between atoms: _275  and  _277
REMARK  123  A    between atoms: _277  and  _278
REMARK  124  A    between atoms: _277  and  _280
REMARK  125  A    between atoms: _283  and  _285
REMARK  126  A    between atoms: _285  and  _286
REMARK  127  A    between atoms: _288  and  _290
REMARK  128  A    between atoms: _290  and  _291
REMARK  129  A    between atoms: _290  and  _293
REMARK  130  A    between atoms: _293  and  _294
REMARK  131  A    between atoms: _300  and  _302
REMARK  132  A    between atoms: _302  and  _303
REMARK  133  A    between atoms: _302  and  _305
REMARK  134  A    between atoms: _305  and  _306
REMARK  135  A    between atoms: _311  and  _312
REMARK  136  A    between atoms: _314  and  _316
REMARK  137  A    between atoms: _316  and  _317
REMARK  138  A    between atoms: _316  and  _319
REMARK  139  A    between atoms: _319  and  _320
REMARK  140  A    between atoms: _325  and  _326
REMARK  141  A    between atoms: _328  and  _330
REMARK  142  A    between atoms: _330  and  _331
REMARK  143  A    between atoms: _330  and  _333
REMARK  144  A    between atoms: _336  and  _338
REMARK  145  A    between atoms: _338  and  _339
REMARK  146  A    between atoms: _338  and  _341
REMARK  147  A    between atoms: _341  and  _342
REMARK  148  A    between atoms: _345  and  _347
REMARK  149  A    between atoms: _347  and  _348
REMARK  150  A    between atoms: _347  and  _350
REMARK  151  A    between atoms: _353  and  _355
REMARK  152  A    between atoms: _355  and  _356
REMARK  153  A    between atoms: _355  and  _358
REMARK  154  A    between atoms: _358  and  _359
REMARK  155  A    between atoms: _362  and  _364
REMARK  156  A    between atoms: _364  and  _365
REMARK  157  A    between atoms: _364  and  _367
REMARK  158  A    between atoms: _367  and  _368
REMARK  159  A    between atoms: _371  and  _373
REMARK  160  A    between atoms: _373  and  _374
REMARK  161  A    between atoms: _373  and  _376
REMARK  162  A    between atoms: _376  and  _377
REMARK  163  A    between atoms: _377  and  _378
REMARK  164  A    between atoms: _378  and  _379
REMARK  165  A    between atoms: _379  and  _380
REMARK  166  A    between atoms: _384  and  _386
REMARK  167  A    between atoms: _386  and  _387
REMARK  168  A    between atoms: _386  and  _389
REMARK  169  A    between atoms: _389  and  _390
REMARK  170  A    between atoms: _395  and  _397
REMARK  171  A    between atoms: _397  and  _398
REMARK  172  A    between atoms: _401  and  _403
REMARK  173  A    between atoms: _403  and  _404
REMARK  174  A    between atoms: _403  and  _406
REMARK  175  A    between atoms: _406  and  _407
REMARK  176  A    between atoms: _417  and  _419
REMARK  177  A    between atoms: _419  and  _420
REMARK  178  A    between atoms: _419  and  _422
REMARK  179  A    between atoms: _422  and  _423
REMARK  180  A    between atoms: _423  and  _424
REMARK  181  A    between atoms: _427  and  _429
REMARK  182  A    between atoms: _429  and  _430
REMARK  183  A    between atoms: _429  and  _432
REMARK  184  A    between atoms: _432  and  _433
REMARK  185  A    between atoms: _435  and  _437
REMARK  186  A    between atoms: _437  and  _438
REMARK  187  A    between atoms: _437  and  _440
REMARK  188  A    between atoms: _440  and  _441
REMARK  189  A    between atoms: _447  and  _449
REMARK  190  A    between atoms: _449  and  _450
REMARK  191  A    between atoms: _449  and  _452
REMARK  192  A    between atoms: _452  and  _453
REMARK  193  A    between atoms: _456  and  _458
REMARK  194  A    between atoms: _458  and  _459
REMARK  195  A    between atoms: _458  and  _461
REMARK  196  A    between atoms: _464  and  _466
REMARK  197  A    between atoms: _466  and  _467
REMARK  198  A    between atoms: _469  and  _471
REMARK  199  A    between atoms: _471  and  _472
REMARK  200  A    between atoms: _471  and  _474
REMARK  201  A    between atoms: _474  and  _475
REMARK  202  A    between atoms: _478  and  _480
REMARK  203  A    between atoms: _480  and  _481
REMARK  204  A    between atoms: _480  and  _483
REMARK  205  A    between atoms: _483  and  _484
REMARK  206  A    between atoms: _484  and  _485
REMARK  207  A    between atoms: _485  and  _486
REMARK  208  A    between atoms: _486  and  _487
REMARK  209  A    between atoms: _491  and  _493
REMARK  210  A    between atoms: _493  and  _494
REMARK  211  A    between atoms: _493  and  _496
REMARK  212  A    between atoms: _499  and  _501
REMARK  213  A    between atoms: _501  and  _502
REMARK  214  A    between atoms: _501  and  _504
REMARK  215  A    between atoms: _504  and  _505
REMARK                            x       y       z     vdW  Elec       q    Type
REMARK                         _______ _______ _______ _____ _____    ______ ____
ROOT
ATOM      1  CA  LEU A   2      -6.895  30.802  30.944  0.00  0.00    +0.149 C 
ENDROOT
BRANCH   1   3
ATOM      2  C   ASP A   1      -7.014  33.212  31.337  0.00  0.00    +0.239 C 
ATOM      3  N   LEU A   2      -6.577  32.013  31.725  0.00  0.00    -0.297 N 
ATOM      4  H   LEU A   2      -6.005  31.931  32.589  0.00  0.00    +0.150 HD
ATOM      5  O   ASP A   1      -7.796  33.374  30.375  0.00  0.00    -0.274 OA
BRANCH   2   6
ATOM      6  CA  ASP A   1      -6.483  34.401  32.124  0.00  0.00    +0.156 C 
BRANCH   6   7
ATOM      7  N   ASP A   1      -6.626  34.134  33.537  0.00  0.00    -0.238 NA
ATOM      8  H   ASP A   1      -5.777  34.150  34.138  0.00  0.00    +0.142 HD
ENDBRANCH   6   7
BRANCH   6   9
ATOM      9  CB  ASP A   1      -5.017  34.609  31.710  0.00  0.00    +0.140 C 
BRANCH   9  10
ATOM     10  CG  ASP A   1      -4.443  35.942  32.124  0.00  0.00    +0.367 C 
ATOM     11  OD2 ASP A   1      -3.203  35.979  32.319  0.00  0.00    -0.246 OA
ATOM     12  OD1 ASP A   1      -5.198  36.932  32.251  0.00  0.00    -0.246 OA
ENDBRANCH   9  10
ENDBRANCH   6   9
ENDBRANCH   2   6
ENDBRANCH   1   3
BRANCH   1  13
ATOM     13  C   LEU A   2      -8.378  30.472  30.971  0.00  0.00    +0.241 C 
ATOM     14  N   ILE A   3      -8.996  30.608  32.128  0.00  0.00    -0.298 N 
ATOM     15  H   ILE A   3      -8.493  31.032  32.934  0.00  0.00    +0.150 HD
ATOM     16  O   LEU A   2      -8.931  30.082  29.963  0.00  0.00    -0.273 OA
BRANCH  14  17
ATOM     17  CA  ILE A   3     -10.378  30.170  32.288  0.00  0.00    +0.137 C 
BRANCH  17  18
ATOM     18  CB  ILE A   3     -10.623  29.689  33.707  0.00  0.00    +0.026 C 
ATOM     19  CG2 ILE A   3     -12.147  29.336  33.914  0.00  0.00    +0.002 C 
BRANCH  18  20
ATOM     20  CG1 ILE A   3      -9.715  28.478  33.967  0.00  0.00    +0.002 C 
ATOM     21  CD1 ILE A   3      -9.597  28.144  35.428  0.00  0.00    +0.000 C 
ENDBRANCH  18  20
ENDBRANCH  17  18
BRANCH  17  22
ATOM     22  C   ILE A   3     -11.342  31.261  31.875  0.00  0.00    +0.227 C 
ATOM     23  O   ILE A   3     -12.337  30.984  31.151  0.00  0.00    -0.286 OA
ENDBRANCH  17  22
ENDBRANCH  14  17
ENDBRANCH   1  13
BRANCH   1  24
ATOM     24  CB  LEU A   2      -6.111  29.583  31.431  0.00  0.00    +0.029 C 
BRANCH  24  25
ATOM     25  CG  LEU A   2      -4.607  29.688  31.258  0.00  0.00    +0.002 C 
ATOM     26  CD2 LEU A   2      -3.864  28.495  31.961  0.00  0.00    +0.000 C 
ATOM     27  CD1 LEU A   2      -4.199  29.784  29.783  0.00  0.00    +0.000 C 
ENDBRANCH  24  25
ENDBRANCH   1  24
TORSDOF 12
REMARK  Name = ../refined-set-2016/3qdd/3qdd_pocket.pdb
REMARK  215 active torsions:
REMARK  status: ('A' for Active; 'I' for Inactive)
REMARK    1  A    between atoms: _1  and  _3
REMARK    2  A    between atoms: _3  and  _4
REMARK    3  A    between atoms: _3  and  _6
REMARK    4  A    between atoms: _6  and  _7
REMARK    5  A    between atoms: _13  and  _15
REMARK    6  A    between atoms: _15  and  _16
REMARK    7  A    between atoms: _15  and  _18
REMARK    8  A    between atoms: _18  and  _19
REMARK    9  A    between atoms: _22  and  _24
REMARK   10  A    between atoms: _24  and  _25
REMARK   11  A    between atoms: _24  and  _27
REMARK   12  A    between atoms: _27  and  _28
REMARK   13  A    between atoms: _28  and  _29
REMARK   14  A    between atoms: _31  and  _33
REMARK   15  A    between atoms: _33  and  _34
REMARK   16  A    between atoms: _33  and  _36
REMARK   17  A    between atoms: _36  and  _37
REMARK   18  A    between atoms: _37  and  _38
REMARK   19  A    between atoms: _41  and  _43
REMARK   20  A    between atoms: _43  and  _44
REMARK   21  A    between atoms: _43  and  _46
REMARK   22  A    between atoms: _46  and  _47
REMARK   23  A    between atoms: _50  and  _52
REMARK   24  A    between atoms: _52  and  _53
REMARK   25  A    between atoms: _52  and  _55
REMARK   26  A    between atoms: _55  and  _56
REMARK   27  A    between atoms: _59  and  _61
REMARK   28  A    between atoms: _61  and  _62
REMARK   29  A    between atoms: _61  and  _64
REMARK   30  A    between atoms: _64  and  _65
REMARK   31  A    between atoms: _67  and  _69
REMARK   32  A    between atoms: _69  and  _70
REMARK   33  A    between atoms: _69  and  _72
REMARK   34  A    between atoms: _72  and  _73
REMARK   35  A    between atoms: _78  and  _80
REMARK   36  A    between atoms: _80  and  _81
REMARK   37  A    between atoms: _80  and  _83
REMARK   38  A    between atoms: _83  and  _84
REMARK   39  A    between atoms: _86  and  _88
REMARK   40  A    between atoms: _88  and  _89
REMARK   41  A    between atoms: _88  and  _91
REMARK   42  A    between atoms: _91  and  _92
REMARK   43  A    between atoms: _94  and  _96
REMARK   44  A    between atoms: _96  and  _97
REMARK   45  A    between atoms: _96  and  _99
REMARK   46  A    between atoms: _99  and  _100
REMARK   47  A    between atoms: _103  and  _105
REMARK   48  A    between atoms: _105  and  _106
REMARK   49  A    between atoms: _109  and  _111
REMARK   50  A    between atoms: _111  and  _112
REMARK   51  A    between atoms: _111  and  _114
REMARK   52  A    between atoms: _114  and  _115
REMARK   53  A    between atoms: _118  and  _120
REMARK   54  A    between atoms: _120  and  _121
REMARK   55  A    between atoms: _120  and  _123
REMARK   56  A    between atoms: _123  and  _124
REMARK   57  A    between atoms: _124  and  _125
REMARK   58  A    between atoms: _125  and  _126
REMARK   59  A    between atoms: _126  and  _127
REMARK   60  A    between atoms: _131  and  _133
REMARK   61  A    between atoms: _133  and  _134
REMARK   62  A    between atoms: _133  and  _136
REMARK   63  A    between atoms: _136  and  _137
REMARK   64  A    between atoms: _140  and  _142
REMARK   65  A    between atoms: _142  and  _143
REMARK   66  A    between atoms: _142  and  _145
REMARK   67  A    between atoms: _145  and  _146
REMARK   68  A    between atoms: _149  and  _151
REMARK   69  A    between atoms: _151  and  _152
REMARK   70  A    between atoms: _151  and  _154
REMARK   71  A    between atoms: _157  and  _159
REMARK   72  A    between atoms: _159  and  _160
REMARK   73  A    between atoms: _159  and  _162
REMARK   74  A    between atoms: _162  and  _163
REMARK   75  A    between atoms: _166  and  _168
REMARK   76  A    between atoms: _168  and  _169
REMARK   77  A    between atoms: _168  and  _171
REMARK   78  A    between atoms: _171  and  _172
REMARK   79  A    between atoms: _175  and  _177
REMARK   80  A    between atoms: _177  and  _178
REMARK   81  A    between atoms: _180  and  _182
REMARK   82  A    between atoms: _182  and  _183
REMARK   83  A    between atoms: _182  and  _185
REMARK   84  A    between atoms: _185  and  _186
REMARK   85  A    between atoms: _189  and  _191
REMARK   86  A    between atoms: _191  and  _192
REMARK   87  A    between atoms: _194  and  _196
REMARK   88  A    between atoms: _196  and  _197
REMARK   89  A    between atoms: _196  and  _199
REMARK   90  A    between atoms: _199  and  _200
REMARK   91  A    between atoms: _200  and  _201
REMARK   92  A    between atoms: _203  and  _205
REMARK   93  A    between atoms: _205  and  _206
REMARK   94  A    between atoms: _205  and  _208
REMARK   95  A    between atoms: _208  and  _209
REMARK   96  A    between atoms: _212  and  _214
REMARK   97  A    between atoms: _214  and  _215
REMARK   98  A    between atoms: _214  and  _217
REMARK   99  A    between atoms: _217  and  _218
REMARK  100  A    between atoms: _221  and  _223
REMARK  101  A    between atoms: _223  and  _224
REMARK  102  A    between atoms: _223  and  _226
REMARK  103  A    between atoms: _226  and  _227
REMARK  104  A    between atoms: _230  and  _232
REMARK  105  A    between atoms: _232  and  _233
REMARK  106  A    between atoms: _232  and  _235
REMARK  107  A    between atoms: _235  and  _236
REMARK  108  A    between atoms: _239  and  _241
REMARK  109  A    between atoms: _241  and  _242
REMARK  110  A    between atoms: _241  and  _244
REMARK  111  A    between atoms: _244  and  _245
REMARK  112  A    between atoms: _250  and  _252
REMARK  113  A    between atoms: _252  and  _253
REMARK  114  A    between atoms: _252  and  _255
REMARK  115  A    between atoms: _255  and  _256
REMARK  116  A    between atoms: _259  and  _261
REMARK  117  A    between atoms: _261  and  _262
REMARK  118  A    between atoms: _264  and  _266
REMARK  119  A    between atoms: _266  and  _267
REMARK  120  A    between atoms: _270  and  _272
REMARK  121  A    between atoms: _272  and  _273
REMARK  122  A    between atoms: _275  and  _277
REMARK  123  A    between atoms: _277  and  _278
REMARK  124  A    between atoms: _277  and  _280
REMARK  125  A    between atoms: _283  and  _285
REMARK  126  A    between atoms: _285  and  _286
REMARK  127  A    between atoms: _288  and  _290
REMARK  128  A    between atoms: _290  and  _291
REMARK  129  A    between atoms: _290  and  _293
REMARK  130  A    between atoms: _293  and  _294
REMARK  131  A    between atoms: _300  and  _302
REMARK  132  A    between atoms: _302  and  _303
REMARK  133  A    between atoms: _302  and  _305
REMARK  134  A    between atoms: _305  and  _306
REMARK  135  A    between atoms: _311  and  _312
REMARK  136  A    between atoms: _314  and  _316
REMARK  137  A    between atoms: _316  and  _317
REMARK  138  A    between atoms: _316  and  _319
REMARK  139  A    between atoms: _319  and  _320
REMARK  140  A    between atoms: _325  and  _326
REMARK  141  A    between atoms: _328  and  _330
REMARK  142  A    between atoms: _330  and  _331
REMARK  143  A    between atoms: _330  and  _333
REMARK  144  A    between atoms: _336  and  _338
REMARK  145  A    between atoms: _338  and  _339
REMARK  146  A    between atoms: _338  and  _341
REMARK  147  A    between atoms: _341  and  _342
REMARK  148  A    between atoms: _345  and  _347
REMARK  149  A    between atoms: _347  and  _348
REMARK  150  A    between atoms: _347  and  _350
REMARK  151  A    between atoms: _353  and  _355
REMARK  152  A    between atoms: _355  and  _356
REMARK  153  A    between atoms: _355  and  _358
REMARK  154  A    between atoms: _358  and  _359
REMARK  155  A    between atoms: _362  and  _364
REMARK  156  A    between atoms: _364  and  _365
REMARK  157  A    between atoms: _364  and  _367
REMARK  158  A    between atoms: _367  and  _368
REMARK  159  A    between atoms: _371  and  _373
REMARK  160  A    between atoms: _373  and  _374
REMARK  161  A    between atoms: _373  and  _376
REMARK  162  A    between atoms: _376  and  _377
REMARK  163  A    between atoms: _377  and  _378
REMARK  164  A    between atoms: _378  and  _379
REMARK  165  A    between atoms: _379  and  _380
REMARK  166  A    between atoms: _384  and  _386
REMARK  167  A    between atoms: _386  and  _387
REMARK  168  A    between atoms: _386  and  _389
REMARK  169  A    between atoms: _389  and  _390
REMARK  170  A    between atoms: _395  and  _397
REMARK  171  A    between atoms: _397  and  _398
REMARK  172  A    between atoms: _401  and  _403
REMARK  173  A    between atoms: _403  and  _404
REMARK  174  A    between atoms: _403  and  _406
REMARK  175  A    between atoms: _406  and  _407
REMARK  176  A    between atoms: _417  and  _419
REMARK  177  A    between atoms: _419  and  _420
REMARK  178  A    between atoms: _419  and  _422
REMARK  179  A    between atoms: _422  and  _423
REMARK  180  A    between atoms: _423  and  _424
REMARK  181  A    between atoms: _427  and  _429
REMARK  182  A    between atoms: _429  and  _430
REMARK  183  A    between atoms: _429  and  _432
REMARK  184  A    between atoms: _432  and  _433
REMARK  185  A    between atoms: _435  and  _437
REMARK  186  A    between atoms: _437  and  _438
REMARK  187  A    between atoms: _437  and  _440
REMARK  188  A    between atoms: _440  and  _441
REMARK  189  A    between atoms: _447  and  _449
REMARK  190  A    between atoms: _449  and  _450
REMARK  191  A    between atoms: _449  and  _452
REMARK  192  A    between atoms: _452  and  _453
REMARK  193  A    between atoms: _456  and  _458
REMARK  194  A    between atoms: _458  and  _459
REMARK  195  A    between atoms: _458  and  _461
REMARK  196  A    between atoms: _464  and  _466
REMARK  197  A    between atoms: _466  and  _467
REMARK  198  A    between atoms: _469  and  _471
REMARK  199  A    between atoms: _471  and  _472
REMARK  200  A    between atoms: _471  and  _474
REMARK  201  A    between atoms: _474  and  _475
REMARK  202  A    between atoms: _478  and  _480
REMARK  203  A    between atoms: _480  and  _481
REMARK  204  A    between atoms: _480  and  _483
REMARK  205  A    between atoms: _483  and  _484
REMARK  206  A    between atoms: _484  and  _485
REMARK  207  A    between atoms: _485  and  _486
REMARK  208  A    between atoms: _486  and  _487
REMARK  209  A    between atoms: _491  and  _493
REMARK  210  A    between atoms: _493  and  _494
REMARK  211  A    between atoms: _493  and  _496
REMARK  212  A    between atoms: _499  and  _501
REMARK  213  A    between atoms: _501  and  _502
REMARK  214  A    between atoms: _501  and  _504
REMARK  215  A    between atoms: _504  and  _505
REMARK                            x       y       z     vdW  Elec       q    Type
REMARK                         _______ _______ _______ _____ _____    ______ ____
ROOT
ATOM      1  C   ASN A   1      -9.914  36.806  29.613  0.00  0.00    +0.239 C 
ATOM      2  N   LEU A   2      -9.149  35.849  29.087  0.00  0.00    -0.297 N 
ATOM      3  H   LEU A   2      -8.762  35.098  29.694  0.00  0.00    +0.150 HD
ATOM      4  O   ASN A   1     -10.399  37.711  28.948  0.00  0.00    -0.274 OA
ENDROOT
BRANCH   1   5
ATOM      5  CA  ASN A   1     -10.121  36.771  31.141  0.00  0.00    +0.154 C 
BRANCH   5   6
ATOM      6  N   ASN A   1     -10.416  35.411  31.608  0.00  0.00    -0.238 NA
ATOM      7  H   ASN A   1      -9.725  34.908  32.200  0.00  0.00    +0.142 HD
ENDBRANCH   5   6
BRANCH   5   8
ATOM      8  CB  ASN A   1      -8.881  37.404  31.788  0.00  0.00    +0.111 C 
BRANCH   8   9
ATOM      9  CG  ASN A   1      -8.965  37.518  33.293  0.00  0.00    +0.221 C 
ATOM     10  ND2 ASN A   1      -7.773  37.510  33.950  0.00  0.00    -0.329 N 
ATOM     11 HD21 ASN A   1      -7.748  37.620  34.984  0.00  0.00    +0.145 HD
ATOM     12 HD22 ASN A   1      -6.887  37.394  33.418  0.00  0.00    +0.145 HD
ATOM     13  OD1 ASN A   1     -10.049  37.651  33.861  0.00  0.00    -0.275 OA
ENDBRANCH   8   9
ENDBRANCH   5   8
ENDBRANCH   1   5
BRANCH   2  14
ATOM     14  CA  LEU A   2      -8.853  35.858  27.640  0.00  0.00    +0.149 C 
BRANCH  14  15
ATOM     15  C   LEU A   2     -10.130  35.694  26.794  0.00  0.00    +0.241 C 
ATOM     16  N   GLY A   3     -10.974  34.786  27.263  0.00  0.00    -0.296 N 
ATOM     17  H   GLY A   3     -10.674  34.220  28.082  0.00  0.00    +0.150 HD
ATOM     18  O   LEU A   2     -10.303  36.356  25.739  0.00  0.00    -0.273 OA
BRANCH  16  19
ATOM     19  CA  GLY A   3     -12.306  34.528  26.700  0.00  0.00    +0.163 C 
BRANCH  19  20
ATOM     20  C   GLY A   3     -13.175  35.768  26.702  0.00  0.00    +0.229 C 
ATOM     21  O   GLY A   3     -13.822  36.098  25.671  0.00  0.00    -0.286 OA
ENDBRANCH  19  20
ENDBRANCH  16  19
ENDBRANCH  14  15
BRANCH  14  22
ATOM     22  CB  LEU A   2      -7.826  34.797  27.307  0.00  0.00    +0.029 C 
BRANCH  22  23
ATOM     23  CG  LEU A   2      -6.440  35.052  27.914  0.00  0.00    +0.002 C 
ATOM     24  CD2 LEU A   2      -5.514  33.868  27.632  0.00  0.00    +0.000 C 
ATOM     25  CD1 LEU A   2      -5.859  36.395  27.445  0.00  0.00    +0.000 C 
ENDBRANCH  22  23
ENDBRANCH  14  22
ENDBRANCH   2  14
TORSDOF 10
REMARK  Name = ../refined-set-2016/3qdd/3qdd_pocket.pdb
REMARK  215 active torsions:
REMARK  status: ('A' for Active; 'I' for Inactive)
REMARK    1  A    between atoms: _1  and  _3
REMARK    2  A    between atoms: _3  and  _4
REMARK    3  A    between atoms: _3  and  _6
REMARK    4  A    between atoms: _6  and  _7
REMARK    5  A    between atoms: _13  and  _15
REMARK    6  A    between atoms: _15  and  _16
REMARK    7  A    between atoms: _15  and  _18
REMARK    8  A    between atoms: _18  and  _19
REMARK    9  A    between atoms: _22  and  _24
REMARK   10  A    between atoms: _24  and  _25
REMARK   11  A    between atoms: _24  and  _27
REMARK   12  A    between atoms: _27  and  _28
REMARK   13  A    between atoms: _28  and  _29
REMARK   14  A    between atoms: _31  and  _33
REMARK   15  A    between atoms: _33  and  _34
REMARK   16  A    between atoms: _33  and  _36
REMARK   17  A    between atoms: _36  and  _37
REMARK   18  A    between atoms: _37  and  _38
REMARK   19  A    between atoms: _41  and  _43
REMARK   20  A    between atoms: _43  and  _44
REMARK   21  A    between atoms: _43  and  _46
REMARK   22  A    between atoms: _46  and  _47
REMARK   23  A    between atoms: _50  and  _52
REMARK   24  A    between atoms: _52  and  _53
REMARK   25  A    between atoms: _52  and  _55
REMARK   26  A    between atoms: _55  and  _56
REMARK   27  A    between atoms: _59  and  _61
REMARK   28  A    between atoms: _61  and  _62
REMARK   29  A    between atoms: _61  and  _64
REMARK   30  A    between atoms: _64  and  _65
REMARK   31  A    between atoms: _67  and  _69
REMARK   32  A    between atoms: _69  and  _70
REMARK   33  A    between atoms: _69  and  _72
REMARK   34  A    between atoms: _72  and  _73
REMARK   35  A    between atoms: _78  and  _80
REMARK   36  A    between atoms: _80  and  _81
REMARK   37  A    between atoms: _80  and  _83
REMARK   38  A    between atoms: _83  and  _84
REMARK   39  A    between atoms: _86  and  _88
REMARK   40  A    between atoms: _88  and  _89
REMARK   41  A    between atoms: _88  and  _91
REMARK   42  A    between atoms: _91  and  _92
REMARK   43  A    between atoms: _94  and  _96
REMARK   44  A    between atoms: _96  and  _97
REMARK   45  A    between atoms: _96  and  _99
REMARK   46  A    between atoms: _99  and  _100
REMARK   47  A    between atoms: _103  and  _105
REMARK   48  A    between atoms: _105  and  _106
REMARK   49  A    between atoms: _109  and  _111
REMARK   50  A    between atoms: _111  and  _112
REMARK   51  A    between atoms: _111  and  _114
REMARK   52  A    between atoms: _114  and  _115
REMARK   53  A    between atoms: _118  and  _120
REMARK   54  A    between atoms: _120  and  _121
REMARK   55  A    between atoms: _120  and  _123
REMARK   56  A    between atoms: _123  and  _124
REMARK   57  A    between atoms: _124  and  _125
REMARK   58  A    between atoms: _125  and  _126
REMARK   59  A    between atoms: _126  and  _127
REMARK   60  A    between atoms: _131  and  _133
REMARK   61  A    between atoms: _133  and  _134
REMARK   62  A    between atoms: _133  and  _136
REMARK   63  A    between atoms: _136  and  _137
REMARK   64  A    between atoms: _140  and  _142
REMARK   65  A    between atoms: _142  and  _143
REMARK   66  A    between atoms: _142  and  _145
REMARK   67  A    between atoms: _145  and  _146
REMARK   68  A    between atoms: _149  and  _151
REMARK   69  A    between atoms: _151  and  _152
REMARK   70  A    between atoms: _151  and  _154
REMARK   71  A    between atoms: _157  and  _159
REMARK   72  A    between atoms: _159  and  _160
REMARK   73  A    between atoms: _159  and  _162
REMARK   74  A    between atoms: _162  and  _163
REMARK   75  A    between atoms: _166  and  _168
REMARK   76  A    between atoms: _168  and  _169
REMARK   77  A    between atoms: _168  and  _171
REMARK   78  A    between atoms: _171  and  _172
REMARK   79  A    between atoms: _175  and  _177
REMARK   80  A    between atoms: _177  and  _178
REMARK   81  A    between atoms: _180  and  _182
REMARK   82  A    between atoms: _182  and  _183
REMARK   83  A    between atoms: _182  and  _185
REMARK   84  A    between atoms: _185  and  _186
REMARK   85  A    between atoms: _189  and  _191
REMARK   86  A    between atoms: _191  and  _192
REMARK   87  A    between atoms: _194  and  _196
REMARK   88  A    between atoms: _196  and  _197
REMARK   89  A    between atoms: _196  and  _199
REMARK   90  A    between atoms: _199  and  _200
REMARK   91  A    between atoms: _200  and  _201
REMARK   92  A    between atoms: _203  and  _205
REMARK   93  A    between atoms: _205  and  _206
REMARK   94  A    between atoms: _205  and  _208
REMARK   95  A    between atoms: _208  and  _209
REMARK   96  A    between atoms: _212  and  _214
REMARK   97  A    between atoms: _214  and  _215
REMARK   98  A    between atoms: _214  and  _217
REMARK   99  A    between atoms: _217  and  _218
REMARK  100  A    between atoms: _221  and  _223
REMARK  101  A    between atoms: _223  and  _224
REMARK  102  A    between atoms: _223  and  _226
REMARK  103  A    between atoms: _226  and  _227
REMARK  104  A    between atoms: _230  and  _232
REMARK  105  A    between atoms: _232  and  _233
REMARK  106  A    between atoms: _232  and  _235
REMARK  107  A    between atoms: _235  and  _236
REMARK  108  A    between atoms: _239  and  _241
REMARK  109  A    between atoms: _241  and  _242
REMARK  110  A    between atoms: _241  and  _244
REMARK  111  A    between atoms: _244  and  _245
REMARK  112  A    between atoms: _250  and  _252
REMARK  113  A    between atoms: _252  and  _253
REMARK  114  A    between atoms: _252  and  _255
REMARK  115  A    between atoms: _255  and  _256
REMARK  116  A    between atoms: _259  and  _261
REMARK  117  A    between atoms: _261  and  _262
REMARK  118  A    between atoms: _264  and  _266
REMARK  119  A    between atoms: _266  and  _267
REMARK  120  A    between atoms: _270  and  _272
REMARK  121  A    between atoms: _272  and  _273
REMARK  122  A    between atoms: _275  and  _277
REMARK  123  A    between atoms: _277  and  _278
REMARK  124  A    between atoms: _277  and  _280
REMARK  125  A    between atoms: _283  and  _285
REMARK  126  A    between atoms: _285  and  _286
REMARK  127  A    between atoms: _288  and  _290
REMARK  128  A    between atoms: _290  and  _291
REMARK  129  A    between atoms: _290  and  _293
REMARK  130  A    between atoms: _293  and  _294
REMARK  131  A    between atoms: _300  and  _302
REMARK  132  A    between atoms: _302  and  _303
REMARK  133  A    between atoms: _302  and  _305
REMARK  134  A    between atoms: _305  and  _306
REMARK  135  A    between atoms: _311  and  _312
REMARK  136  A    between atoms: _314  and  _316
REMARK  137  A    between atoms: _316  and  _317
REMARK  138  A    between atoms: _316  and  _319
REMARK  139  A    between atoms: _319  and  _320
REMARK  140  A    between atoms: _325  and  _326
REMARK  141  A    between atoms: _328  and  _330
REMARK  142  A    between atoms: _330  and  _331
REMARK  143  A    between atoms: _330  and  _333
REMARK  144  A    between atoms: _336  and  _338
REMARK  145  A    between atoms: _338  and  _339
REMARK  146  A    between atoms: _338  and  _341
REMARK  147  A    between atoms: _341  and  _342
REMARK  148  A    between atoms: _345  and  _347
REMARK  149  A    between atoms: _347  and  _348
REMARK  150  A    between atoms: _347  and  _350
REMARK  151  A    between atoms: _353  and  _355
REMARK  152  A    between atoms: _355  and  _356
REMARK  153  A    between atoms: _355  and  _358
REMARK  154  A    between atoms: _358  and  _359
REMARK  155  A    between atoms: _362  and  _364
REMARK  156  A    between atoms: _364  and  _365
REMARK  157  A    between atoms: _364  and  _367
REMARK  158  A    between atoms: _367  and  _368
REMARK  159  A    between atoms: _371  and  _373
REMARK  160  A    between atoms: _373  and  _374
REMARK  161  A    between atoms: _373  and  _376
REMARK  162  A    between atoms: _376  and  _377
REMARK  163  A    between atoms: _377  and  _378
REMARK  164  A    between atoms: _378  and  _379
REMARK  165  A    between atoms: _379  and  _380
REMARK  166  A    between atoms: _384  and  _386
REMARK  167  A    between atoms: _386  and  _387
REMARK  168  A    between atoms: _386  and  _389
REMARK  169  A    between atoms: _389  and  _390
REMARK  170  A    between atoms: _395  and  _397
REMARK  171  A    between atoms: _397  and  _398
REMARK  172  A    between atoms: _401  and  _403
REMARK  173  A    between atoms: _403  and  _404
REMARK  174  A    between atoms: _403  and  _406
REMARK  175  A    between atoms: _406  and  _407
REMARK  176  A    between atoms: _417  and  _419
REMARK  177  A    between atoms: _419  and  _420
REMARK  178  A    between atoms: _419  and  _422
REMARK  179  A    between atoms: _422  and  _423
REMARK  180  A    between atoms: _423  and  _424
REMARK  181  A    between atoms: _427  and  _429
REMARK  182  A    between atoms: _429  and  _430
REMARK  183  A    between atoms: _429  and  _432
REMARK  184  A    between atoms: _432  and  _433
REMARK  185  A    between atoms: _435  and  _437
REMARK  186  A    between atoms: _437  and  _438
REMARK  187  A    between atoms: _437  and  _440
REMARK  188  A    between atoms: _440  and  _441
REMARK  189  A    between atoms: _447  and  _449
REMARK  190  A    between atoms: _449  and  _450
REMARK  191  A    between atoms: _449  and  _452
REMARK  192  A    between atoms: _452  and  _453
REMARK  193  A    between atoms: _456  and  _458
REMARK  194  A    between atoms: _458  and  _459
REMARK  195  A    between atoms: _458  and  _461
REMARK  196  A    between atoms: _464  and  _466
REMARK  197  A    between atoms: _466  and  _467
REMARK  198  A    between atoms: _469  and  _471
REMARK  199  A    between atoms: _471  and  _472
REMARK  200  A    between atoms: _471  and  _474
REMARK  201  A    between atoms: _474  and  _475
REMARK  202  A    between atoms: _478  and  _480
REMARK  203  A    between atoms: _480  and  _481
REMARK  204  A    between atoms: _480  and  _483
REMARK  205  A    between atoms: _483  and  _484
REMARK  206  A    between atoms: _484  and  _485
REMARK  207  A    between atoms: _485  and  _486
REMARK  208  A    between atoms: _486  and  _487
REMARK  209  A    between atoms: _491  and  _493
REMARK  210  A    between atoms: _493  and  _494
REMARK  211  A    between atoms: _493  and  _496
REMARK  212  A    between atoms: _499  and  _501
REMARK  213  A    between atoms: _501  and  _502
REMARK  214  A    between atoms: _501  and  _504
REMARK  215  A    between atoms: _504  and  _505
REMARK                            x       y       z     vdW  Elec       q    Type
REMARK                         _______ _______ _______ _____ _____    ______ ____
ROOT
ATOM      1  CA  ALA A   1     -12.075  37.626  22.834  0.00  0.00    +0.133 C 
ATOM      2  CB  ALA A   1     -11.594  36.178  22.768  0.00  0.00    +0.027 C 
ENDROOT
BRANCH   1   3
ATOM      3  N   ALA A   1     -11.886  38.160  24.175  0.00  0.00    -0.239 NA
ATOM      4  H   ALA A   1     -11.629  37.503  24.939  0.00  0.00    +0.142 HD
ENDBRANCH   1   3
BRANCH   1   5
ATOM      5  C   ALA A   1     -13.532  37.715  22.316  0.00  0.00    +0.224 C 
ATOM      6  O   ALA A   1     -13.762  37.720  21.081  0.00  0.00    -0.287 OA
ENDBRANCH   1   5
TORSDOF 2
REMARK  Name = ../refined-set-2016/3qdd/3qdd_pocket.pdb
REMARK  215 active torsions:
REMARK  status: ('A' for Active; 'I' for Inactive)
REMARK    1  A    between atoms: _1  and  _3
REMARK    2  A    between atoms: _3  and  _4
REMARK    3  A    between atoms: _3  and  _6
REMARK    4  A    between atoms: _6  and  _7
REMARK    5  A    between atoms: _13  and  _15
REMARK    6  A    between atoms: _15  and  _16
REMARK    7  A    between atoms: _15  and  _18
REMARK    8  A    between atoms: _18  and  _19
REMARK    9  A    between atoms: _22  and  _24
REMARK   10  A    between atoms: _24  and  _25
REMARK   11  A    between atoms: _24  and  _27
REMARK   12  A    between atoms: _27  and  _28
REMARK   13  A    between atoms: _28  and  _29
REMARK   14  A    between atoms: _31  and  _33
REMARK   15  A    between atoms: _33  and  _34
REMARK   16  A    between atoms: _33  and  _36
REMARK   17  A    between atoms: _36  and  _37
REMARK   18  A    between atoms: _37  and  _38
REMARK   19  A    between atoms: _41  and  _43
REMARK   20  A    between atoms: _43  and  _44
REMARK   21  A    between atoms: _43  and  _46
REMARK   22  A    between atoms: _46  and  _47
REMARK   23  A    between atoms: _50  and  _52
REMARK   24  A    between atoms: _52  and  _53
REMARK   25  A    between atoms: _52  and  _55
REMARK   26  A    between atoms: _55  and  _56
REMARK   27  A    between atoms: _59  and  _61
REMARK   28  A    between atoms: _61  and  _62
REMARK   29  A    between atoms: _61  and  _64
REMARK   30  A    between atoms: _64  and  _65
REMARK   31  A    between atoms: _67  and  _69
REMARK   32  A    between atoms: _69  and  _70
REMARK   33  A    between atoms: _69  and  _72
REMARK   34  A    between atoms: _72  and  _73
REMARK   35  A    between atoms: _78  and  _80
REMARK   36  A    between atoms: _80  and  _81
REMARK   37  A    between atoms: _80  and  _83
REMARK   38  A    between atoms: _83  and  _84
REMARK   39  A    between atoms: _86  and  _88
REMARK   40  A    between atoms: _88  and  _89
REMARK   41  A    between atoms: _88  and  _91
REMARK   42  A    between atoms: _91  and  _92
REMARK   43  A    between atoms: _94  and  _96
REMARK   44  A    between atoms: _96  and  _97
REMARK   45  A    between atoms: _96  and  _99
REMARK   46  A    between atoms: _99  and  _100
REMARK   47  A    between atoms: _103  and  _105
REMARK   48  A    between atoms: _105  and  _106
REMARK   49  A    between atoms: _109  and  _111
REMARK   50  A    between atoms: _111  and  _112
REMARK   51  A    between atoms: _111  and  _114
REMARK   52  A    between atoms: _114  and  _115
REMARK   53  A    between atoms: _118  and  _120
REMARK   54  A    between atoms: _120  and  _121
REMARK   55  A    between atoms: _120  and  _123
REMARK   56  A    between atoms: _123  and  _124
REMARK   57  A    between atoms: _124  and  _125
REMARK   58  A    between atoms: _125  and  _126
REMARK   59  A    between atoms: _126  and  _127
REMARK   60  A    between atoms: _131  and  _133
REMARK   61  A    between atoms: _133  and  _134
REMARK   62  A    between atoms: _133  and  _136
REMARK   63  A    between atoms: _136  and  _137
REMARK   64  A    between atoms: _140  and  _142
REMARK   65  A    between atoms: _142  and  _143
REMARK   66  A    between atoms: _142  and  _145
REMARK   67  A    between atoms: _145  and  _146
REMARK   68  A    between atoms: _149  and  _151
REMARK   69  A    between atoms: _151  and  _152
REMARK   70  A    between atoms: _151  and  _154
REMARK   71  A    between atoms: _157  and  _159
REMARK   72  A    between atoms: _159  and  _160
REMARK   73  A    between atoms: _159  and  _162
REMARK   74  A    between atoms: _162  and  _163
REMARK   75  A    between atoms: _166  and  _168
REMARK   76  A    between atoms: _168  and  _169
REMARK   77  A    between atoms: _168  and  _171
REMARK   78  A    between atoms: _171  and  _172
REMARK   79  A    between atoms: _175  and  _177
REMARK   80  A    between atoms: _177  and  _178
REMARK   81  A    between atoms: _180  and  _182
REMARK   82  A    between atoms: _182  and  _183
REMARK   83  A    between atoms: _182  and  _185
REMARK   84  A    between atoms: _185  and  _186
REMARK   85  A    between atoms: _189  and  _191
REMARK   86  A    between atoms: _191  and  _192
REMARK   87  A    between atoms: _194  and  _196
REMARK   88  A    between atoms: _196  and  _197
REMARK   89  A    between atoms: _196  and  _199
REMARK   90  A    between atoms: _199  and  _200
REMARK   91  A    between atoms: _200  and  _201
REMARK   92  A    between atoms: _203  and  _205
REMARK   93  A    between atoms: _205  and  _206
REMARK   94  A    between atoms: _205  and  _208
REMARK   95  A    between atoms: _208  and  _209
REMARK   96  A    between atoms: _212  and  _214
REMARK   97  A    between atoms: _214  and  _215
REMARK   98  A    between atoms: _214  and  _217
REMARK   99  A    between atoms: _217  and  _218
REMARK  100  A    between atoms: _221  and  _223
REMARK  101  A    between atoms: _223  and  _224
REMARK  102  A    between atoms: _223  and  _226
REMARK  103  A    between atoms: _226  and  _227
REMARK  104  A    between atoms: _230  and  _232
REMARK  105  A    between atoms: _232  and  _233
REMARK  106  A    between atoms: _232  and  _235
REMARK  107  A    between atoms: _235  and  _236
REMARK  108  A    between atoms: _239  and  _241
REMARK  109  A    between atoms: _241  and  _242
REMARK  110  A    between atoms: _241  and  _244
REMARK  111  A    between atoms: _244  and  _245
REMARK  112  A    between atoms: _250  and  _252
REMARK  113  A    between atoms: _252  and  _253
REMARK  114  A    between atoms: _252  and  _255
REMARK  115  A    between atoms: _255  and  _256
REMARK  116  A    between atoms: _259  and  _261
REMARK  117  A    between atoms: _261  and  _262
REMARK  118  A    between atoms: _264  and  _266
REMARK  119  A    between atoms: _266  and  _267
REMARK  120  A    between atoms: _270  and  _272
REMARK  121  A    between atoms: _272  and  _273
REMARK  122  A    between atoms: _275  and  _277
REMARK  123  A    between atoms: _277  and  _278
REMARK  124  A    between atoms: _277  and  _280
REMARK  125  A    between atoms: _283  and  _285
REMARK  126  A    between atoms: _285  and  _286
REMARK  127  A    between atoms: _288  and  _290
REMARK  128  A    between atoms: _290  and  _291
REMARK  129  A    between atoms: _290  and  _293
REMARK  130  A    between atoms: _293  and  _294
REMARK  131  A    between atoms: _300  and  _302
REMARK  132  A    between atoms: _302  and  _303
REMARK  133  A    between atoms: _302  and  _305
REMARK  134  A    between atoms: _305  and  _306
REMARK  135  A    between atoms: _311  and  _312
REMARK  136  A    between atoms: _314  and  _316
REMARK  137  A    between atoms: _316  and  _317
REMARK  138  A    between atoms: _316  and  _319
REMARK  139  A    between atoms: _319  and  _320
REMARK  140  A    between atoms: _325  and  _326
REMARK  141  A    between atoms: _328  and  _330
REMARK  142  A    between atoms: _330  and  _331
REMARK  143  A    between atoms: _330  and  _333
REMARK  144  A    between atoms: _336  and  _338
REMARK  145  A    between atoms: _338  and  _339
REMARK  146  A    between atoms: _338  and  _341
REMARK  147  A    between atoms: _341  and  _342
REMARK  148  A    between atoms: _345  and  _347
REMARK  149  A    between atoms: _347  and  _348
REMARK  150  A    between atoms: _347  and  _350
REMARK  151  A    between atoms: _353  and  _355
REMARK  152  A    between atoms: _355  and  _356
REMARK  153  A    between atoms: _355  and  _358
REMARK  154  A    between atoms: _358  and  _359
REMARK  155  A    between atoms: _362  and  _364
REMARK  156  A    between atoms: _364  and  _365
REMARK  157  A    between atoms: _364  and  _367
REMARK  158  A    between atoms: _367  and  _368
REMARK  159  A    between atoms: _371  and  _373
REMARK  160  A    between atoms: _373  and  _374
REMARK  161  A    between atoms: _373  and  _376
REMARK  162  A    between atoms: _376  and  _377
REMARK  163  A    between atoms: _377  and  _378
REMARK  164  A    between atoms: _378  and  _379
REMARK  165  A    between atoms: _379  and  _380
REMARK  166  A    between atoms: _384  and  _386
REMARK  167  A    between atoms: _386  and  _387
REMARK  168  A    between atoms: _386  and  _389
REMARK  169  A    between atoms: _389  and  _390
REMARK  170  A    between atoms: _395  and  _397
REMARK  171  A    between atoms: _397  and  _398
REMARK  172  A    between atoms: _401  and  _403
REMARK  173  A    between atoms: _403  and  _404
REMARK  174  A    between atoms: _403  and  _406
REMARK  175  A    between atoms: _406  and  _407
REMARK  176  A    between atoms: _417  and  _419
REMARK  177  A    between atoms: _419  and  _420
REMARK  178  A    between atoms: _419  and  _422
REMARK  179  A    between atoms: _422  and  _423
REMARK  180  A    between atoms: _423  and  _424
REMARK  181  A    between atoms: _427  and  _429
REMARK  182  A    between atoms: _429  and  _430
REMARK  183  A    between atoms: _429  and  _432
REMARK  184  A    between atoms: _432  and  _433
REMARK  185  A    between atoms: _435  and  _437
REMARK  186  A    between atoms: _437  and  _438
REMARK  187  A    between atoms: _437  and  _440
REMARK  188  A    between atoms: _440  and  _441
REMARK  189  A    between atoms: _447  and  _449
REMARK  190  A    between atoms: _449  and  _450
REMARK  191  A    between atoms: _449  and  _452
REMARK  192  A    between atoms: _452  and  _453
REMARK  193  A    between atoms: _456  and  _458
REMARK  194  A    between atoms: _458  and  _459
REMARK  195  A    between atoms: _458  and  _461
REMARK  196  A    between atoms: _464  and  _466
REMARK  197  A    between atoms: _466  and  _467
REMARK  198  A    between atoms: _469  and  _471
REMARK  199  A    between atoms: _471  and  _472
REMARK  200  A    between atoms: _471  and  _474
REMARK  201  A    between atoms: _474  and  _475
REMARK  202  A    between atoms: _478  and  _480
REMARK  203  A    between atoms: _480  and  _481
REMARK  204  A    between atoms: _480  and  _483
REMARK  205  A    between atoms: _483  and  _484
REMARK  206  A    between atoms: _484  and  _485
REMARK  207  A    between atoms: _485  and  _486
REMARK  208  A    between atoms: _486  and  _487
REMARK  209  A    between atoms: _491  and  _493
REMARK  210  A    between atoms: _493  and  _494
REMARK  211  A    between atoms: _493  and  _496
REMARK  212  A    between atoms: _499  and  _501
REMARK  213  A    between atoms: _501  and  _502
REMARK  214  A    between atoms: _501  and  _504
REMARK  215  A    between atoms: _504  and  _505
REMARK                            x       y       z     vdW  Elec       q    Type
REMARK                         _______ _______ _______ _____ _____    ______ ____
ROOT
ATOM      1  CA  PHE A   4      -4.369  32.840  18.718  0.00  0.00    +0.153 C 
ENDROOT
BRANCH   1   3
ATOM      2  C   GLY A   3      -4.724  34.328  16.835  0.00  0.00    +0.243 C 
ATOM      3  N   PHE A   4      -4.736  34.137  18.158  0.00  0.00    -0.297 N 
ATOM      4  H   PHE A   4      -5.008  34.916  18.791  0.00  0.00    +0.150 HD
ATOM      5  O   GLY A   3      -4.459  33.421  16.053  0.00  0.00    -0.273 OA
BRANCH   2   6
ATOM      6  CA  GLY A   3      -5.145  35.689  16.310  0.00  0.00    +0.176 C 
BRANCH   6   9
ATOM      7  C   VAL A   2      -7.294  35.890  17.483  0.00  0.00    +0.241 C 
ATOM      8  O   VAL A   2      -7.655  34.744  17.153  0.00  0.00    -0.273 OA
ATOM      9  N   GLY A   3      -6.107  36.391  17.147  0.00  0.00    -0.295 N 
ATOM     10  H   GLY A   3      -5.853  37.335  17.502  0.00  0.00    +0.150 HD
BRANCH   7  11
ATOM     11  CA  VAL A   2      -8.153  36.817  18.390  0.00  0.00    +0.148 C 
BRANCH  11  14
ATOM     12  C   GLY A   1      -7.429  39.014  19.240  0.00  0.00    +0.240 C 
ATOM     13  O   GLY A   1      -7.288  38.581  20.389  0.00  0.00    -0.274 OA
ATOM     14  N   VAL A   2      -7.765  38.231  18.211  0.00  0.00    -0.297 N 
ATOM     15  H   VAL A   2      -7.753  38.631  17.251  0.00  0.00    +0.150 HD
BRANCH  12  16
ATOM     16  CA  GLY A   1      -7.159  40.477  18.959  0.00  0.00    +0.169 C 
BRANCH  16  17
ATOM     17  N   GLY A   1      -7.701  40.995  17.711  0.00  0.00    -0.236 NA
ATOM     18  H   GLY A   1      -7.042  41.202  16.934  0.00  0.00    +0.142 HD
ENDBRANCH  16  17
ENDBRANCH  12  16
ENDBRANCH  11  14
BRANCH  11  19
ATOM     19  CB  VAL A   2      -9.673  36.615  18.239  0.00  0.00    +0.027 C 
ATOM     20  CG2 VAL A   2     -10.445  37.353  19.363  0.00  0.00    +0.002 C 
ATOM     21  CG1 VAL A   2     -10.160  37.052  16.849  0.00  0.00    +0.002 C 
ENDBRANCH  11  19
ENDBRANCH   7  11
ENDBRANCH   6   9
ENDBRANCH   2   6
ENDBRANCH   1   3
BRANCH   1  22
ATOM     22  C   PHE A   4      -5.172  31.698  18.062  0.00  0.00    +0.241 C 
ATOM     23  N   TYR A   5      -6.462  31.926  17.837  0.00  0.00    -0.298 N 
ATOM     24  H   TYR A   5      -6.853  32.877  17.990  0.00  0.00    +0.150 HD
ATOM     25  O   PHE A   4      -4.648  30.626  17.816  0.00  0.00    -0.273 OA
BRANCH  23  26
ATOM     26  CA  TYR A   5      -7.338  30.842  17.374  0.00  0.00    +0.141 C 
BRANCH  26  27
ATOM     27  C   TYR A   5      -7.046  30.403  15.943  0.00  0.00    +0.227 C 
ATOM     28  O   TYR A   5      -7.491  29.318  15.534  0.00  0.00    -0.286 OA
ENDBRANCH  26  27
BRANCH  26  29
ATOM     29  CB  TYR A   5      -8.829  31.221  17.571  0.00  0.00    +0.054 C 
BRANCH  29  30
ATOM     30  CG  TYR A   5      -9.174  31.466  19.037  0.00  0.00    -0.020 A 
ATOM     31  CD2 TYR A   5      -9.527  30.432  19.910  0.00  0.00    -0.001 A 
ATOM     32  CE2 TYR A   5      -9.764  30.698  21.265  0.00  0.00    +0.036 A 
ATOM     33  CZ  TYR A   5      -9.682  32.010  21.726  0.00  0.00    +0.134 A 
ATOM     34  CE1 TYR A   5      -9.327  33.015  20.868  0.00  0.00    +0.036 A 
ATOM     35  CD1 TYR A   5      -9.069  32.742  19.555  0.00  0.00    -0.001 A 
BRANCH  33  36
ATOM     36  OH  TYR A   5      -9.919  32.364  23.049  0.00  0.00    -0.506 OA
ATOM     37  HH  TYR A   5     -10.166  31.557  23.566  0.00  0.00    +0.292 HD
ENDBRANCH  33  36
ENDBRANCH  29  30
ENDBRANCH  26  29
ENDBRANCH  23  26
ENDBRANCH   1  22
BRANCH   1  38
ATOM     38  CB  PHE A   4      -4.658  32.780  20.240  0.00  0.00    +0.055 C 
BRANCH  38  39
ATOM     39  CG  PHE A   4      -4.608  31.389  20.803  0.00  0.00    -0.020 A 
ATOM     40  CD2 PHE A   4      -5.786  30.690  21.096  0.00  0.00    -0.004 A 
ATOM     41  CE2 PHE A   4      -5.739  29.408  21.641  0.00  0.00    -0.000 A 
ATOM     42  CZ  PHE A   4      -4.535  28.782  21.847  0.00  0.00    -0.000 A 
ATOM     43  CE1 PHE A   4      -3.350  29.470  21.570  0.00  0.00    -0.000 A 
ATOM     44  CD1 PHE A   4      -3.399  30.758  21.035  0.00  0.00    -0.004 A 
ENDBRANCH  38  39
ENDBRANCH   1  38
TORSDOF 16
REMARK  Name = ../refined-set-2016/3qdd/3qdd_pocket.pdb
REMARK  215 active torsions:
REMARK  status: ('A' for Active; 'I' for Inactive)
REMARK    1  A    between atoms: _1  and  _3
REMARK    2  A    between atoms: _3  and  _4
REMARK    3  A    between atoms: _3  and  _6
REMARK    4  A    between atoms: _6  and  _7
REMARK    5  A    between atoms: _13  and  _15
REMARK    6  A    between atoms: _15  and  _16
REMARK    7  A    between atoms: _15  and  _18
REMARK    8  A    between atoms: _18  and  _19
REMARK    9  A    between atoms: _22  and  _24
REMARK   10  A    between atoms: _24  and  _25
REMARK   11  A    between atoms: _24  and  _27
REMARK   12  A    between atoms: _27  and  _28
REMARK   13  A    between atoms: _28  and  _29
REMARK   14  A    between atoms: _31  and  _33
REMARK   15  A    between atoms: _33  and  _34
REMARK   16  A    between atoms: _33  and  _36
REMARK   17  A    between atoms: _36  and  _37
REMARK   18  A    between atoms: _37  and  _38
REMARK   19  A    between atoms: _41  and  _43
REMARK   20  A    between atoms: _43  and  _44
REMARK   21  A    between atoms: _43  and  _46
REMARK   22  A    between atoms: _46  and  _47
REMARK   23  A    between atoms: _50  and  _52
REMARK   24  A    between atoms: _52  and  _53
REMARK   25  A    between atoms: _52  and  _55
REMARK   26  A    between atoms: _55  and  _56
REMARK   27  A    between atoms: _59  and  _61
REMARK   28  A    between atoms: _61  and  _62
REMARK   29  A    between atoms: _61  and  _64
REMARK   30  A    between atoms: _64  and  _65
REMARK   31  A    between atoms: _67  and  _69
REMARK   32  A    between atoms: _69  and  _70
REMARK   33  A    between atoms: _69  and  _72
REMARK   34  A    between atoms: _72  and  _73
REMARK   35  A    between atoms: _78  and  _80
REMARK   36  A    between atoms: _80  and  _81
REMARK   37  A    between atoms: _80  and  _83
REMARK   38  A    between atoms: _83  and  _84
REMARK   39  A    between atoms: _86  and  _88
REMARK   40  A    between atoms: _88  and  _89
REMARK   41  A    between atoms: _88  and  _91
REMARK   42  A    between atoms: _91  and  _92
REMARK   43  A    between atoms: _94  and  _96
REMARK   44  A    between atoms: _96  and  _97
REMARK   45  A    between atoms: _96  and  _99
REMARK   46  A    between atoms: _99  and  _100
REMARK   47  A    between atoms: _103  and  _105
REMARK   48  A    between atoms: _105  and  _106
REMARK   49  A    between atoms: _109  and  _111
REMARK   50  A    between atoms: _111  and  _112
REMARK   51  A    between atoms: _111  and  _114
REMARK   52  A    between atoms: _114  and  _115
REMARK   53  A    between atoms: _118  and  _120
REMARK   54  A    between atoms: _120  and  _121
REMARK   55  A    between atoms: _120  and  _123
REMARK   56  A    between atoms: _123  and  _124
REMARK   57  A    between atoms: _124  and  _125
REMARK   58  A    between atoms: _125  and  _126
REMARK   59  A    between atoms: _126  and  _127
REMARK   60  A    between atoms: _131  and  _133
REMARK   61  A    between atoms: _133  and  _134
REMARK   62  A    between atoms: _133  and  _136
REMARK   63  A    between atoms: _136  and  _137
REMARK   64  A    between atoms: _140  and  _142
REMARK   65  A    between atoms: _142  and  _143
REMARK   66  A    between atoms: _142  and  _145
REMARK   67  A    between atoms: _145  and  _146
REMARK   68  A    between atoms: _149  and  _151
REMARK   69  A    between atoms: _151  and  _152
REMARK   70  A    between atoms: _151  and  _154
REMARK   71  A    between atoms: _157  and  _159
REMARK   72  A    between atoms: _159  and  _160
REMARK   73  A    between atoms: _159  and  _162
REMARK   74  A    between atoms: _162  and  _163
REMARK   75  A    between atoms: _166  and  _168
REMARK   76  A    between atoms: _168  and  _169
REMARK   77  A    between atoms: _168  and  _171
REMARK   78  A    between atoms: _171  and  _172
REMARK   79  A    between atoms: _175  and  _177
REMARK   80  A    between atoms: _177  and  _178
REMARK   81  A    between atoms: _180  and  _182
REMARK   82  A    between atoms: _182  and  _183
REMARK   83  A    between atoms: _182  and  _185
REMARK   84  A    between atoms: _185  and  _186
REMARK   85  A    between atoms: _189  and  _191
REMARK   86  A    between atoms: _191  and  _192
REMARK   87  A    between atoms: _194  and  _196
REMARK   88  A    between atoms: _196  and  _197
REMARK   89  A    between atoms: _196  and  _199
REMARK   90  A    between atoms: _199  and  _200
REMARK   91  A    between atoms: _200  and  _201
REMARK   92  A    between atoms: _203  and  _205
REMARK   93  A    between atoms: _205  and  _206
REMARK   94  A    between atoms: _205  and  _208
REMARK   95  A    between atoms: _208  and  _209
REMARK   96  A    between atoms: _212  and  _214
REMARK   97  A    between atoms: _214  and  _215
REMARK   98  A    between atoms: _214  and  _217
REMARK   99  A    between atoms: _217  and  _218
REMARK  100  A    between atoms: _221  and  _223
REMARK  101  A    between atoms: _223  and  _224
REMARK  102  A    between atoms: _223  and  _226
REMARK  103  A    between atoms: _226  and  _227
REMARK  104  A    between atoms: _230  and  _232
REMARK  105  A    between atoms: _232  and  _233
REMARK  106  A    between atoms: _232  and  _235
REMARK  107  A    between atoms: _235  and  _236
REMARK  108  A    between atoms: _239  and  _241
REMARK  109  A    between atoms: _241  and  _242
REMARK  110  A    between atoms: _241  and  _244
REMARK  111  A    between atoms: _244  and  _245
REMARK  112  A    between atoms: _250  and  _252
REMARK  113  A    between atoms: _252  and  _253
REMARK  114  A    between atoms: _252  and  _255
REMARK  115  A    between atoms: _255  and  _256
REMARK  116  A    between atoms: _259  and  _261
REMARK  117  A    between atoms: _261  and  _262
REMARK  118  A    between atoms: _264  and  _266
REMARK  119  A    between atoms: _266  and  _267
REMARK  120  A    between atoms: _270  and  _272
REMARK  121  A    between atoms: _272  and  _273
REMARK  122  A    between atoms: _275  and  _277
REMARK  123  A    between atoms: _277  and  _278
REMARK  124  A    between atoms: _277  and  _280
REMARK  125  A    between atoms: _283  and  _285
REMARK  126  A    between atoms: _285  and  _286
REMARK  127  A    between atoms: _288  and  _290
REMARK  128  A    between atoms: _290  and  _291
REMARK  129  A    between atoms: _290  and  _293
REMARK  130  A    between atoms: _293  and  _294
REMARK  131  A    between atoms: _300  and  _302
REMARK  132  A    between atoms: _302  and  _303
REMARK  133  A    between atoms: _302  and  _305
REMARK  134  A    between atoms: _305  and  _306
REMARK  135  A    between atoms: _311  and  _312
REMARK  136  A    between atoms: _314  and  _316
REMARK  137  A    between atoms: _316  and  _317
REMARK  138  A    between atoms: _316  and  _319
REMARK  139  A    between atoms: _319  and  _320
REMARK  140  A    between atoms: _325  and  _326
REMARK  141  A    between atoms: _328  and  _330
REMARK  142  A    between atoms: _330  and  _331
REMARK  143  A    between atoms: _330  and  _333
REMARK  144  A    between atoms: _336  and  _338
REMARK  145  A    between atoms: _338  and  _339
REMARK  146  A    between atoms: _338  and  _341
REMARK  147  A    between atoms: _341  and  _342
REMARK  148  A    between atoms: _345  and  _347
REMARK  149  A    between atoms: _347  and  _348
REMARK  150  A    between atoms: _347  and  _350
REMARK  151  A    between atoms: _353  and  _355
REMARK  152  A    between atoms: _355  and  _356
REMARK  153  A    between atoms: _355  and  _358
REMARK  154  A    between atoms: _358  and  _359
REMARK  155  A    between atoms: _362  and  _364
REMARK  156  A    between atoms: _364  and  _365
REMARK  157  A    between atoms: _364  and  _367
REMARK  158  A    between atoms: _367  and  _368
REMARK  159  A    between atoms: _371  and  _373
REMARK  160  A    between atoms: _373  and  _374
REMARK  161  A    between atoms: _373  and  _376
REMARK  162  A    between atoms: _376  and  _377
REMARK  163  A    between atoms: _377  and  _378
REMARK  164  A    between atoms: _378  and  _379
REMARK  165  A    between atoms: _379  and  _380
REMARK  166  A    between atoms: _384  and  _386
REMARK  167  A    between atoms: _386  and  _387
REMARK  168  A    between atoms: _386  and  _389
REMARK  169  A    between atoms: _389  and  _390
REMARK  170  A    between atoms: _395  and  _397
REMARK  171  A    between atoms: _397  and  _398
REMARK  172  A    between atoms: _401  and  _403
REMARK  173  A    between atoms: _403  and  _404
REMARK  174  A    between atoms: _403  and  _406
REMARK  175  A    between atoms: _406  and  _407
REMARK  176  A    between atoms: _417  and  _419
REMARK  177  A    between atoms: _419  and  _420
REMARK  178  A    between atoms: _419  and  _422
REMARK  179  A    between atoms: _422  and  _423
REMARK  180  A    between atoms: _423  and  _424
REMARK  181  A    between atoms: _427  and  _429
REMARK  182  A    between atoms: _429  and  _430
REMARK  183  A    between atoms: _429  and  _432
REMARK  184  A    between atoms: _432  and  _433
REMARK  185  A    between atoms: _435  and  _437
REMARK  186  A    between atoms: _437  and  _438
REMARK  187  A    between atoms: _437  and  _440
REMARK  188  A    between atoms: _440  and  _441
REMARK  189  A    between atoms: _447  and  _449
REMARK  190  A    between atoms: _449  and  _450
REMARK  191  A    between atoms: _449  and  _452
REMARK  192  A    between atoms: _452  and  _453
REMARK  193  A    between atoms: _456  and  _458
REMARK  194  A    between atoms: _458  and  _459
REMARK  195  A    between atoms: _458  and  _461
REMARK  196  A    between atoms: _464  and  _466
REMARK  197  A    between atoms: _466  and  _467
REMARK  198  A    between atoms: _469  and  _471
REMARK  199  A    between atoms: _471  and  _472
REMARK  200  A    between atoms: _471  and  _474
REMARK  201  A    between atoms: _474  and  _475
REMARK  202  A    between atoms: _478  and  _480
REMARK  203  A    between atoms: _480  and  _481
REMARK  204  A    between atoms: _480  and  _483
REMARK  205  A    between atoms: _483  and  _484
REMARK  206  A    between atoms: _484  and  _485
REMARK  207  A    between atoms: _485  and  _486
REMARK  208  A    between atoms: _486  and  _487
REMARK  209  A    between atoms: _491  and  _493
REMARK  210  A    between atoms: _493  and  _494
REMARK  211  A    between atoms: _493  and  _496
REMARK  212  A    between atoms: _499  and  _501
REMARK  213  A    between atoms: _501  and  _502
REMARK  214  A    between atoms: _501  and  _504
REMARK  215  A    between atoms: _504  and  _505
REMARK                            x       y       z     vdW  Elec       q    Type
REMARK                         _______ _______ _______ _____ _____    ______ ____
ROOT
ATOM      1  CG  TYR A   1      -7.884  25.501  16.589  0.00  0.00    -0.020 A 
ATOM      2  CD2 TYR A   1      -7.598  26.474  17.520  0.00  0.00    -0.001 A 
ATOM      3  CE2 TYR A   1      -7.396  26.142  18.869  0.00  0.00    +0.036 A 
ATOM      4  CZ  TYR A   1      -7.420  24.799  19.267  0.00  0.00    +0.134 A 
ATOM      5  CE1 TYR A   1      -7.673  23.808  18.349  0.00  0.00    +0.036 A 
ATOM      6  CD1 TYR A   1      -7.883  24.147  17.024  0.00  0.00    -0.001 A 
ENDROOT
BRANCH   4   7
ATOM      7  OH  TYR A   1      -7.197  24.535  20.592  0.00  0.00    -0.506 OA
ATOM      8  HH  TYR A   1      -7.240  23.558  20.744  0.00  0.00    +0.292 HD
ENDBRANCH   4   7
BRANCH   1   9
ATOM      9  CB  TYR A   1      -8.031  25.843  15.107  0.00  0.00    +0.051 C 
BRANCH   9  10
ATOM     10  CA  TYR A   1      -6.650  25.744  14.428  0.00  0.00    +0.137 C 
BRANCH  10  11
ATOM     11  N   TYR A   1      -5.759  26.832  14.877  0.00  0.00    -0.239 NA
ATOM     12  H   TYR A   1      -6.186  27.690  15.282  0.00  0.00    +0.142 HD
ENDBRANCH  10  11
BRANCH  10  13
ATOM     13  C   TYR A   1      -6.725  25.597  12.882  0.00  0.00    +0.224 C 
ATOM     14  O   TYR A   1      -7.357  24.661  12.352  0.00  0.00    -0.287 OA
ENDBRANCH  10  13
ENDBRANCH   9  10
ENDBRANCH   1   9
TORSDOF 5
REMARK  Name = ../refined-set-2016/3qdd/3qdd_pocket.pdb
REMARK  215 active torsions:
REMARK  status: ('A' for Active; 'I' for Inactive)
REMARK    1  A    between atoms: _1  and  _3
REMARK    2  A    between atoms: _3  and  _4
REMARK    3  A    between atoms: _3  and  _6
REMARK    4  A    between atoms: _6  and  _7
REMARK    5  A    between atoms: _13  and  _15
REMARK    6  A    between atoms: _15  and  _16
REMARK    7  A    between atoms: _15  and  _18
REMARK    8  A    between atoms: _18  and  _19
REMARK    9  A    between atoms: _22  and  _24
REMARK   10  A    between atoms: _24  and  _25
REMARK   11  A    between atoms: _24  and  _27
REMARK   12  A    between atoms: _27  and  _28
REMARK   13  A    between atoms: _28  and  _29
REMARK   14  A    between atoms: _31  and  _33
REMARK   15  A    between atoms: _33  and  _34
REMARK   16  A    between atoms: _33  and  _36
REMARK   17  A    between atoms: _36  and  _37
REMARK   18  A    between atoms: _37  and  _38
REMARK   19  A    between atoms: _41  and  _43
REMARK   20  A    between atoms: _43  and  _44
REMARK   21  A    between atoms: _43  and  _46
REMARK   22  A    between atoms: _46  and  _47
REMARK   23  A    between atoms: _50  and  _52
REMARK   24  A    between atoms: _52  and  _53
REMARK   25  A    between atoms: _52  and  _55
REMARK   26  A    between atoms: _55  and  _56
REMARK   27  A    between atoms: _59  and  _61
REMARK   28  A    between atoms: _61  and  _62
REMARK   29  A    between atoms: _61  and  _64
REMARK   30  A    between atoms: _64  and  _65
REMARK   31  A    between atoms: _67  and  _69
REMARK   32  A    between atoms: _69  and  _70
REMARK   33  A    between atoms: _69  and  _72
REMARK   34  A    between atoms: _72  and  _73
REMARK   35  A    between atoms: _78  and  _80
REMARK   36  A    between atoms: _80  and  _81
REMARK   37  A    between atoms: _80  and  _83
REMARK   38  A    between atoms: _83  and  _84
REMARK   39  A    between atoms: _86  and  _88
REMARK   40  A    between atoms: _88  and  _89
REMARK   41  A    between atoms: _88  and  _91
REMARK   42  A    between atoms: _91  and  _92
REMARK   43  A    between atoms: _94  and  _96
REMARK   44  A    between atoms: _96  and  _97
REMARK   45  A    between atoms: _96  and  _99
REMARK   46  A    between atoms: _99  and  _100
REMARK   47  A    between atoms: _103  and  _105
REMARK   48  A    between atoms: _105  and  _106
REMARK   49  A    between atoms: _109  and  _111
REMARK   50  A    between atoms: _111  and  _112
REMARK   51  A    between atoms: _111  and  _114
REMARK   52  A    between atoms: _114  and  _115
REMARK   53  A    between atoms: _118  and  _120
REMARK   54  A    between atoms: _120  and  _121
REMARK   55  A    between atoms: _120  and  _123
REMARK   56  A    between atoms: _123  and  _124
REMARK   57  A    between atoms: _124  and  _125
REMARK   58  A    between atoms: _125  and  _126
REMARK   59  A    between atoms: _126  and  _127
REMARK   60  A    between atoms: _131  and  _133
REMARK   61  A    between atoms: _133  and  _134
REMARK   62  A    between atoms: _133  and  _136
REMARK   63  A    between atoms: _136  and  _137
REMARK   64  A    between atoms: _140  and  _142
REMARK   65  A    between atoms: _142  and  _143
REMARK   66  A    between atoms: _142  and  _145
REMARK   67  A    between atoms: _145  and  _146
REMARK   68  A    between atoms: _149  and  _151
REMARK   69  A    between atoms: _151  and  _152
REMARK   70  A    between atoms: _151  and  _154
REMARK   71  A    between atoms: _157  and  _159
REMARK   72  A    between atoms: _159  and  _160
REMARK   73  A    between atoms: _159  and  _162
REMARK   74  A    between atoms: _162  and  _163
REMARK   75  A    between atoms: _166  and  _168
REMARK   76  A    between atoms: _168  and  _169
REMARK   77  A    between atoms: _168  and  _171
REMARK   78  A    between atoms: _171  and  _172
REMARK   79  A    between atoms: _175  and  _177
REMARK   80  A    between atoms: _177  and  _178
REMARK   81  A    between atoms: _180  and  _182
REMARK   82  A    between atoms: _182  and  _183
REMARK   83  A    between atoms: _182  and  _185
REMARK   84  A    between atoms: _185  and  _186
REMARK   85  A    between atoms: _189  and  _191
REMARK   86  A    between atoms: _191  and  _192
REMARK   87  A    between atoms: _194  and  _196
REMARK   88  A    between atoms: _196  and  _197
REMARK   89  A    between atoms: _196  and  _199
REMARK   90  A    between atoms: _199  and  _200
REMARK   91  A    between atoms: _200  and  _201
REMARK   92  A    between atoms: _203  and  _205
REMARK   93  A    between atoms: _205  and  _206
REMARK   94  A    between atoms: _205  and  _208
REMARK   95  A    between atoms: _208  and  _209
REMARK   96  A    between atoms: _212  and  _214
REMARK   97  A    between atoms: _214  and  _215
REMARK   98  A    between atoms: _214  and  _217
REMARK   99  A    between atoms: _217  and  _218
REMARK  100  A    between atoms: _221  and  _223
REMARK  101  A    between atoms: _223  and  _224
REMARK  102  A    between atoms: _223  and  _226
REMARK  103  A    between atoms: _226  and  _227
REMARK  104  A    between atoms: _230  and  _232
REMARK  105  A    between atoms: _232  and  _233
REMARK  106  A    between atoms: _232  and  _235
REMARK  107  A    between atoms: _235  and  _236
REMARK  108  A    between atoms: _239  and  _241
REMARK  109  A    between atoms: _241  and  _242
REMARK  110  A    between atoms: _241  and  _244
REMARK  111  A    between atoms: _244  and  _245
REMARK  112  A    between atoms: _250  and  _252
REMARK  113  A    between atoms: _252  and  _253
REMARK  114  A    between atoms: _252  and  _255
REMARK  115  A    between atoms: _255  and  _256
REMARK  116  A    between atoms: _259  and  _261
REMARK  117  A    between atoms: _261  and  _262
REMARK  118  A    between atoms: _264  and  _266
REMARK  119  A    between atoms: _266  and  _267
REMARK  120  A    between atoms: _270  and  _272
REMARK  121  A    between atoms: _272  and  _273
REMARK  122  A    between atoms: _275  and  _277
REMARK  123  A    between atoms: _277  and  _278
REMARK  124  A    between atoms: _277  and  _280
REMARK  125  A    between atoms: _283  and  _285
REMARK  126  A    between atoms: _285  and  _286
REMARK  127  A    between atoms: _288  and  _290
REMARK  128  A    between atoms: _290  and  _291
REMARK  129  A    between atoms: _290  and  _293
REMARK  130  A    between atoms: _293  and  _294
REMARK  131  A    between atoms: _300  and  _302
REMARK  132  A    between atoms: _302  and  _303
REMARK  133  A    between atoms: _302  and  _305
REMARK  134  A    between atoms: _305  and  _306
REMARK  135  A    between atoms: _311  and  _312
REMARK  136  A    between atoms: _314  and  _316
REMARK  137  A    between atoms: _316  and  _317
REMARK  138  A    between atoms: _316  and  _319
REMARK  139  A    between atoms: _319  and  _320
REMARK  140  A    between atoms: _325  and  _326
REMARK  141  A    between atoms: _328  and  _330
REMARK  142  A    between atoms: _330  and  _331
REMARK  143  A    between atoms: _330  and  _333
REMARK  144  A    between atoms: _336  and  _338
REMARK  145  A    between atoms: _338  and  _339
REMARK  146  A    between atoms: _338  and  _341
REMARK  147  A    between atoms: _341  and  _342
REMARK  148  A    between atoms: _345  and  _347
REMARK  149  A    between atoms: _347  and  _348
REMARK  150  A    between atoms: _347  and  _350
REMARK  151  A    between atoms: _353  and  _355
REMARK  152  A    between atoms: _355  and  _356
REMARK  153  A    between atoms: _355  and  _358
REMARK  154  A    between atoms: _358  and  _359
REMARK  155  A    between atoms: _362  and  _364
REMARK  156  A    between atoms: _364  and  _365
REMARK  157  A    between atoms: _364  and  _367
REMARK  158  A    between atoms: _367  and  _368
REMARK  159  A    between atoms: _371  and  _373
REMARK  160  A    between atoms: _373  and  _374
REMARK  161  A    between atoms: _373  and  _376
REMARK  162  A    between atoms: _376  and  _377
REMARK  163  A    between atoms: _377  and  _378
REMARK  164  A    between atoms: _378  and  _379
REMARK  165  A    between atoms: _379  and  _380
REMARK  166  A    between atoms: _384  and  _386
REMARK  167  A    between atoms: _386  and  _387
REMARK  168  A    between atoms: _386  and  _389
REMARK  169  A    between atoms: _389  and  _390
REMARK  170  A    between atoms: _395  and  _397
REMARK  171  A    between atoms: _397  and  _398
REMARK  172  A    between atoms: _401  and  _403
REMARK  173  A    between atoms: _403  and  _404
REMARK  174  A    between atoms: _403  and  _406
REMARK  175  A    between atoms: _406  and  _407
REMARK  176  A    between atoms: _417  and  _419
REMARK  177  A    between atoms: _419  and  _420
REMARK  178  A    between atoms: _419  and  _422
REMARK  179  A    between atoms: _422  and  _423
REMARK  180  A    between atoms: _423  and  _424
REMARK  181  A    between atoms: _427  and  _429
REMARK  182  A    between atoms: _429  and  _430
REMARK  183  A    between atoms: _429  and  _432
REMARK  184  A    between atoms: _432  and  _433
REMARK  185  A    between atoms: _435  and  _437
REMARK  186  A    between atoms: _437  and  _438
REMARK  187  A    between atoms: _437  and  _440
REMARK  188  A    between atoms: _440  and  _441
REMARK  189  A    between atoms: _447  and  _449
REMARK  190  A    between atoms: _449  and  _450
REMARK  191  A    between atoms: _449  and  _452
REMARK  192  A    between atoms: _452  and  _453
REMARK  193  A    between atoms: _456  and  _458
REMARK  194  A    between atoms: _458  and  _459
REMARK  195  A    between atoms: _458  and  _461
REMARK  196  A    between atoms: _464  and  _466
REMARK  197  A    between atoms: _466  and  _467
REMARK  198  A    between atoms: _469  and  _471
REMARK  199  A    between atoms: _471  and  _472
REMARK  200  A    between atoms: _471  and  _474
REMARK  201  A    between atoms: _474  and  _475
REMARK  202  A    between atoms: _478  and  _480
REMARK  203  A    between atoms: _480  and  _481
REMARK  204  A    between atoms: _480  and  _483
REMARK  205  A    between atoms: _483  and  _484
REMARK  206  A    between atoms: _484  and  _485
REMARK  207  A    between atoms: _485  and  _486
REMARK  208  A    between atoms: _486  and  _487
REMARK  209  A    between atoms: _491  and  _493
REMARK  210  A    between atoms: _493  and  _494
REMARK  211  A    between atoms: _493  and  _496
REMARK  212  A    between atoms: _499  and  _501
REMARK  213  A    between atoms: _501  and  _502
REMARK  214  A    between atoms: _501  and  _504
REMARK  215  A    between atoms: _504  and  _505
REMARK                            x       y       z     vdW  Elec       q    Type
REMARK                         _______ _______ _______ _____ _____    ______ ____
ROOT
ATOM      1  C   ILE A   4       2.426  26.823  29.148  0.00  0.00    +0.241 C 
ATOM      2  N   THR A   5       2.092  27.281  30.348  0.00  0.00    -0.295 N 
ATOM      3  H   THR A   5       1.675  26.637  31.051  0.00  0.00    +0.150 HD
ATOM      4  O   ILE A   4       3.004  27.521  28.321  0.00  0.00    -0.273 OA
ENDROOT
BRANCH   2   5
ATOM      5  CA  THR A   5       2.304  28.663  30.680  0.00  0.00    +0.176 C 
BRANCH   5   6
ATOM      6  C   THR A   5       2.624  28.810  32.146  0.00  0.00    +0.243 C 
ATOM      7  O   THR A   5       2.112  28.063  32.995  0.00  0.00    -0.273 OA
ATOM      8  N   LYS A   6       3.470  29.785  32.408  0.00  0.00    -0.297 N 
ATOM      9  H   LYS A   6       3.867  30.320  31.610  0.00  0.00    +0.150 HD
BRANCH   8  10
ATOM     10  CA  LYS A   6       3.885  30.159  33.776  0.00  0.00    +0.149 C 
BRANCH  10  11
ATOM     11  C   LYS A   6       4.011  31.682  33.900  0.00  0.00    +0.241 C 
ATOM     12  N   HIS A   7       3.160  32.249  34.746  0.00  0.00    -0.298 N 
ATOM     13  H   HIS A   7       2.433  31.642  35.175  0.00  0.00    +0.150 HD
ATOM     14  O   LYS A   6       4.823  32.296  33.226  0.00  0.00    -0.273 OA
BRANCH  12  15
ATOM     15  CA  HIS A   7       3.166  33.667  35.122  0.00  0.00    +0.143 C 
BRANCH  15  16
ATOM     16  C   HIS A   7       3.760  33.795  36.532  0.00  0.00    +0.227 C 
ATOM     17  O   HIS A   7       3.565  32.942  37.407  0.00  0.00    -0.286 OA
ENDBRANCH  15  16
BRANCH  15  18
ATOM     18  CB  HIS A   7       1.702  34.172  35.063  0.00  0.00    +0.075 C 
BRANCH  18  19
ATOM     19  CG  HIS A   7       1.527  35.653  35.235  0.00  0.00    +0.082 A 
ATOM     20  ND1 HIS A   7       1.716  36.302  36.436  0.00  0.00    -0.227 NA
ATOM     21  CE1 HIS A   7       1.465  37.591  36.282  0.00  0.00    +0.199 A 
ATOM     22  NE2 HIS A   7       1.075  37.795  35.031  0.00  0.00    -0.221 NA
ATOM     23  CD2 HIS A   7       1.108  36.600  34.357  0.00  0.00    +0.115 A 
ENDBRANCH  18  19
ENDBRANCH  15  18
ENDBRANCH  12  15
ENDBRANCH  10  11
BRANCH  10  24
ATOM     24  CB  LYS A   6       5.210  29.476  34.103  0.00  0.00    +0.029 C 
BRANCH  24  25
ATOM     25  CG  LYS A   6       5.853  29.886  35.452  0.00  0.00    +0.000 C 
BRANCH  25  26
ATOM     26  CD  LYS A   6       5.037  29.366  36.650  0.00  0.00    -0.024 C 
BRANCH  26  27
ATOM     27  CE  LYS A   6       5.684  29.618  37.992  0.00  0.00    -0.086 C 
BRANCH  27  28
ATOM     28  NZ  LYS A   6       5.545  31.033  38.464  0.00  0.00    +0.380 N 
ATOM     29  HZ1 LYS A   6       6.010  31.136  39.388  0.00  0.00    -0.089 HD
ATOM     30  HZ2 LYS A   6       4.536  31.270  38.554  0.00  0.00    -0.089 HD
ATOM     31  HZ3 LYS A   6       5.992  31.672  37.776  0.00  0.00    -0.089 HD
ENDBRANCH  27  28
ENDBRANCH  26  27
ENDBRANCH  25  26
ENDBRANCH  24  25
ENDBRANCH  10  24
ENDBRANCH   8  10
ENDBRANCH   5   6
BRANCH   5  32
ATOM     32  CB  THR A   5       1.142  29.589  30.254  0.00  0.00    +0.137 C 
ATOM     33  CG2 THR A   5      -0.114  29.361  31.110  0.00  0.00    +0.034 C 
BRANCH  32  34
ATOM     34  OG1 THR A   5       1.559  30.978  30.280  0.00  0.00    -0.382 OA
ATOM     35  HG1 THR A   5       2.317  31.106  29.656  0.00  0.00    +0.210 HD
ENDBRANCH  32  34
ENDBRANCH   5  32
ENDBRANCH   2   5
BRANCH   1  36
ATOM     36  CA  ILE A   4       2.007  25.383  28.826  0.00  0.00    +0.149 C 
BRANCH  36  39
ATOM     37  C   VAL A   3       0.000  25.383  27.388  0.00  0.00    +0.241 C 
ATOM     38  O   VAL A   3      -0.788  25.160  28.335  0.00  0.00    -0.273 OA
ATOM     39  N   ILE A   4       1.328  25.422  27.519  0.00  0.00    -0.297 N 
ATOM     40  H   ILE A   4       1.910  25.483  26.659  0.00  0.00    +0.150 HD
BRANCH  37  41
ATOM     41  CA  VAL A   3      -0.519  25.570  25.958  0.00  0.00    +0.149 C 
BRANCH  41  43
ATOM     42  C   THR A   2      -0.797  23.642  24.501  0.00  0.00    +0.243 C 
ATOM     43  N   VAL A   3      -1.193  24.342  25.541  0.00  0.00    -0.297 N 
ATOM     44  H   VAL A   3      -2.014  24.010  26.086  0.00  0.00    +0.150 HD
ATOM     45  O   THR A   2       0.242  23.911  23.879  0.00  0.00    -0.273 OA
BRANCH  42  46
ATOM     46  CA  THR A   2      -1.616  22.411  24.151  0.00  0.00    +0.176 C 
BRANCH  46  49
ATOM     47  C   VAL A   1      -3.198  22.688  22.260  0.00  0.00    +0.238 C 
ATOM     48  O   VAL A   1      -4.199  22.639  22.981  0.00  0.00    -0.274 OA
ATOM     49  N   THR A   2      -1.953  22.545  22.704  0.00  0.00    -0.295 N 
ATOM     50  H   THR A   2      -1.178  22.526  22.010  0.00  0.00    +0.150 HD
BRANCH  47  51
ATOM     51  CA  VAL A   1      -3.342  22.875  20.760  0.00  0.00    +0.145 C 
BRANCH  51  52
ATOM     52  CB  VAL A   1      -3.741  24.326  20.398  0.00  0.00    +0.025 C 
ATOM     53  CG2 VAL A   1      -2.677  25.317  20.966  0.00  0.00    +0.002 C 
ATOM     54  CG1 VAL A   1      -3.895  24.537  18.811  0.00  0.00    +0.002 C 
ENDBRANCH  51  52
BRANCH  51  55
ATOM     55  N   VAL A   1      -4.308  21.890  20.289  0.00  0.00    -0.238 NA
ATOM     56  H   VAL A   1      -5.264  21.876  20.699  0.00  0.00    +0.142 HD
ENDBRANCH  51  55
ENDBRANCH  47  51
ENDBRANCH  46  49
BRANCH  46  57
ATOM     57  CB  THR A   2      -0.812  21.117  24.427  0.00  0.00    +0.137 C 
ATOM     58  CG2 THR A   2      -0.654  20.904  25.960  0.00  0.00    +0.034 C 
BRANCH  57  59
ATOM     59  OG1 THR A   2      -1.465  19.988  23.821  0.00  0.00    -0.382 OA
ATOM     60  HG1 THR A   2      -2.375  19.892  24.200  0.00  0.00    +0.210 HD
ENDBRANCH  57  59
ENDBRANCH  46  57
ENDBRANCH  42  46
ENDBRANCH  41  43
BRANCH  41  61
ATOM     61  CB  VAL A   3      -1.417  26.837  25.846  0.00  0.00    +0.027 C 
ATOM     62  CG2 VAL A   3      -0.635  28.054  26.399  0.00  0.00    +0.002 C 
ATOM     63  CG1 VAL A   3      -1.909  27.098  24.394  0.00  0.00    +0.002 C 
ENDBRANCH  41  61
ENDBRANCH  37  41
ENDBRANCH  36  39
BRANCH  36  64
ATOM     64  CB  ILE A   4       3.258  24.471  28.836  0.00  0.00    +0.027 C 
ATOM     65  CG2 ILE A   4       3.761  24.246  30.281  0.00  0.00    +0.002 C 
BRANCH  64  66
ATOM     66  CG1 ILE A   4       3.005  23.122  28.160  0.00  0.00    +0.002 C 
ATOM     67  CD1 ILE A   4       1.816  22.410  28.636  0.00  0.00    +0.000 C 
ENDBRANCH  64  66
ENDBRANCH  36  64
ENDBRANCH   1  36
TORSDOF 29
REMARK  Name = ../refined-set-2016/3qdd/3qdd_pocket.pdb
REMARK  215 active torsions:
REMARK  status: ('A' for Active; 'I' for Inactive)
REMARK    1  A    between atoms: _1  and  _3
REMARK    2  A    between atoms: _3  and  _4
REMARK    3  A    between atoms: _3  and  _6
REMARK    4  A    between atoms: _6  and  _7
REMARK    5  A    between atoms: _13  and  _15
REMARK    6  A    between atoms: _15  and  _16
REMARK    7  A    between atoms: _15  and  _18
REMARK    8  A    between atoms: _18  and  _19
REMARK    9  A    between atoms: _22  and  _24
REMARK   10  A    between atoms: _24  and  _25
REMARK   11  A    between atoms: _24  and  _27
REMARK   12  A    between atoms: _27  and  _28
REMARK   13  A    between atoms: _28  and  _29
REMARK   14  A    between atoms: _31  and  _33
REMARK   15  A    between atoms: _33  and  _34
REMARK   16  A    between atoms: _33  and  _36
REMARK   17  A    between atoms: _36  and  _37
REMARK   18  A    between atoms: _37  and  _38
REMARK   19  A    between atoms: _41  and  _43
REMARK   20  A    between atoms: _43  and  _44
REMARK   21  A    between atoms: _43  and  _46
REMARK   22  A    between atoms: _46  and  _47
REMARK   23  A    between atoms: _50  and  _52
REMARK   24  A    between atoms: _52  and  _53
REMARK   25  A    between atoms: _52  and  _55
REMARK   26  A    between atoms: _55  and  _56
REMARK   27  A    between atoms: _59  and  _61
REMARK   28  A    between atoms: _61  and  _62
REMARK   29  A    between atoms: _61  and  _64
REMARK   30  A    between atoms: _64  and  _65
REMARK   31  A    between atoms: _67  and  _69
REMARK   32  A    between atoms: _69  and  _70
REMARK   33  A    between atoms: _69  and  _72
REMARK   34  A    between atoms: _72  and  _73
REMARK   35  A    between atoms: _78  and  _80
REMARK   36  A    between atoms: _80  and  _81
REMARK   37  A    between atoms: _80  and  _83
REMARK   38  A    between atoms: _83  and  _84
REMARK   39  A    between atoms: _86  and  _88
REMARK   40  A    between atoms: _88  and  _89
REMARK   41  A    between atoms: _88  and  _91
REMARK   42  A    between atoms: _91  and  _92
REMARK   43  A    between atoms: _94  and  _96
REMARK   44  A    between atoms: _96  and  _97
REMARK   45  A    between atoms: _96  and  _99
REMARK   46  A    between atoms: _99  and  _100
REMARK   47  A    between atoms: _103  and  _105
REMARK   48  A    between atoms: _105  and  _106
REMARK   49  A    between atoms: _109  and  _111
REMARK   50  A    between atoms: _111  and  _112
REMARK   51  A    between atoms: _111  and  _114
REMARK   52  A    between atoms: _114  and  _115
REMARK   53  A    between atoms: _118  and  _120
REMARK   54  A    between atoms: _120  and  _121
REMARK   55  A    between atoms: _120  and  _123
REMARK   56  A    between atoms: _123  and  _124
REMARK   57  A    between atoms: _124  and  _125
REMARK   58  A    between atoms: _125  and  _126
REMARK   59  A    between atoms: _126  and  _127
REMARK   60  A    between atoms: _131  and  _133
REMARK   61  A    between atoms: _133  and  _134
REMARK   62  A    between atoms: _133  and  _136
REMARK   63  A    between atoms: _136  and  _137
REMARK   64  A    between atoms: _140  and  _142
REMARK   65  A    between atoms: _142  and  _143
REMARK   66  A    between atoms: _142  and  _145
REMARK   67  A    between atoms: _145  and  _146
REMARK   68  A    between atoms: _149  and  _151
REMARK   69  A    between atoms: _151  and  _152
REMARK   70  A    between atoms: _151  and  _154
REMARK   71  A    between atoms: _157  and  _159
REMARK   72  A    between atoms: _159  and  _160
REMARK   73  A    between atoms: _159  and  _162
REMARK   74  A    between atoms: _162  and  _163
REMARK   75  A    between atoms: _166  and  _168
REMARK   76  A    between atoms: _168  and  _169
REMARK   77  A    between atoms: _168  and  _171
REMARK   78  A    between atoms: _171  and  _172
REMARK   79  A    between atoms: _175  and  _177
REMARK   80  A    between atoms: _177  and  _178
REMARK   81  A    between atoms: _180  and  _182
REMARK   82  A    between atoms: _182  and  _183
REMARK   83  A    between atoms: _182  and  _185
REMARK   84  A    between atoms: _185  and  _186
REMARK   85  A    between atoms: _189  and  _191
REMARK   86  A    between atoms: _191  and  _192
REMARK   87  A    between atoms: _194  and  _196
REMARK   88  A    between atoms: _196  and  _197
REMARK   89  A    between atoms: _196  and  _199
REMARK   90  A    between atoms: _199  and  _200
REMARK   91  A    between atoms: _200  and  _201
REMARK   92  A    between atoms: _203  and  _205
REMARK   93  A    between atoms: _205  and  _206
REMARK   94  A    between atoms: _205  and  _208
REMARK   95  A    between atoms: _208  and  _209
REMARK   96  A    between atoms: _212  and  _214
REMARK   97  A    between atoms: _214  and  _215
REMARK   98  A    between atoms: _214  and  _217
REMARK   99  A    between atoms: _217  and  _218
REMARK  100  A    between atoms: _221  and  _223
REMARK  101  A    between atoms: _223  and  _224
REMARK  102  A    between atoms: _223  and  _226
REMARK  103  A    between atoms: _226  and  _227
REMARK  104  A    between atoms: _230  and  _232
REMARK  105  A    between atoms: _232  and  _233
REMARK  106  A    between atoms: _232  and  _235
REMARK  107  A    between atoms: _235  and  _236
REMARK  108  A    between atoms: _239  and  _241
REMARK  109  A    between atoms: _241  and  _242
REMARK  110  A    between atoms: _241  and  _244
REMARK  111  A    between atoms: _244  and  _245
REMARK  112  A    between atoms: _250  and  _252
REMARK  113  A    between atoms: _252  and  _253
REMARK  114  A    between atoms: _252  and  _255
REMARK  115  A    between atoms: _255  and  _256
REMARK  116  A    between atoms: _259  and  _261
REMARK  117  A    between atoms: _261  and  _262
REMARK  118  A    between atoms: _264  and  _266
REMARK  119  A    between atoms: _266  and  _267
REMARK  120  A    between atoms: _270  and  _272
REMARK  121  A    between atoms: _272  and  _273
REMARK  122  A    between atoms: _275  and  _277
REMARK  123  A    between atoms: _277  and  _278
REMARK  124  A    between atoms: _277  and  _280
REMARK  125  A    between atoms: _283  and  _285
REMARK  126  A    between atoms: _285  and  _286
REMARK  127  A    between atoms: _288  and  _290
REMARK  128  A    between atoms: _290  and  _291
REMARK  129  A    between atoms: _290  and  _293
REMARK  130  A    between atoms: _293  and  _294
REMARK  131  A    between atoms: _300  and  _302
REMARK  132  A    between atoms: _302  and  _303
REMARK  133  A    between atoms: _302  and  _305
REMARK  134  A    between atoms: _305  and  _306
REMARK  135  A    between atoms: _311  and  _312
REMARK  136  A    between atoms: _314  and  _316
REMARK  137  A    between atoms: _316  and  _317
REMARK  138  A    between atoms: _316  and  _319
REMARK  139  A    between atoms: _319  and  _320
REMARK  140  A    between atoms: _325  and  _326
REMARK  141  A    between atoms: _328  and  _330
REMARK  142  A    between atoms: _330  and  _331
REMARK  143  A    between atoms: _330  and  _333
REMARK  144  A    between atoms: _336  and  _338
REMARK  145  A    between atoms: _338  and  _339
REMARK  146  A    between atoms: _338  and  _341
REMARK  147  A    between atoms: _341  and  _342
REMARK  148  A    between atoms: _345  and  _347
REMARK  149  A    between atoms: _347  and  _348
REMARK  150  A    between atoms: _347  and  _350
REMARK  151  A    between atoms: _353  and  _355
REMARK  152  A    between atoms: _355  and  _356
REMARK  153  A    between atoms: _355  and  _358
REMARK  154  A    between atoms: _358  and  _359
REMARK  155  A    between atoms: _362  and  _364
REMARK  156  A    between atoms: _364  and  _365
REMARK  157  A    between atoms: _364  and  _367
REMARK  158  A    between atoms: _367  and  _368
REMARK  159  A    between atoms: _371  and  _373
REMARK  160  A    between atoms: _373  and  _374
REMARK  161  A    between atoms: _373  and  _376
REMARK  162  A    between atoms: _376  and  _377
REMARK  163  A    between atoms: _377  and  _378
REMARK  164  A    between atoms: _378  and  _379
REMARK  165  A    between atoms: _379  and  _380
REMARK  166  A    between atoms: _384  and  _386
REMARK  167  A    between atoms: _386  and  _387
REMARK  168  A    between atoms: _386  and  _389
REMARK  169  A    between atoms: _389  and  _390
REMARK  170  A    between atoms: _395  and  _397
REMARK  171  A    between atoms: _397  and  _398
REMARK  172  A    between atoms: _401  and  _403
REMARK  173  A    between atoms: _403  and  _404
REMARK  174  A    between atoms: _403  and  _406
REMARK  175  A    between atoms: _406  and  _407
REMARK  176  A    between atoms: _417  and  _419
REMARK  177  A    between atoms: _419  and  _420
REMARK  178  A    between atoms: _419  and  _422
REMARK  179  A    between atoms: _422  and  _423
REMARK  180  A    between atoms: _423  and  _424
REMARK  181  A    between atoms: _427  and  _429
REMARK  182  A    between atoms: _429  and  _430
REMARK  183  A    between atoms: _429  and  _432
REMARK  184  A    between atoms: _432  and  _433
REMARK  185  A    between atoms: _435  and  _437
REMARK  186  A    between atoms: _437  and  _438
REMARK  187  A    between atoms: _437  and  _440
REMARK  188  A    between atoms: _440  and  _441
REMARK  189  A    between atoms: _447  and  _449
REMARK  190  A    between atoms: _449  and  _450
REMARK  191  A    between atoms: _449  and  _452
REMARK  192  A    between atoms: _452  and  _453
REMARK  193  A    between atoms: _456  and  _458
REMARK  194  A    between atoms: _458  and  _459
REMARK  195  A    between atoms: _458  and  _461
REMARK  196  A    between atoms: _464  and  _466
REMARK  197  A    between atoms: _466  and  _467
REMARK  198  A    between atoms: _469  and  _471
REMARK  199  A    between atoms: _471  and  _472
REMARK  200  A    between atoms: _471  and  _474
REMARK  201  A    between atoms: _474  and  _475
REMARK  202  A    between atoms: _478  and  _480
REMARK  203  A    between atoms: _480  and  _481
REMARK  204  A    between atoms: _480  and  _483
REMARK  205  A    between atoms: _483  and  _484
REMARK  206  A    between atoms: _484  and  _485
REMARK  207  A    between atoms: _485  and  _486
REMARK  208  A    between atoms: _486  and  _487
REMARK  209  A    between atoms: _491  and  _493
REMARK  210  A    between atoms: _493  and  _494
REMARK  211  A    between atoms: _493  and  _496
REMARK  212  A    between atoms: _499  and  _501
REMARK  213  A    between atoms: _501  and  _502
REMARK  214  A    between atoms: _501  and  _504
REMARK  215  A    between atoms: _504  and  _505
REMARK                            x       y       z     vdW  Elec       q    Type
REMARK                         _______ _______ _______ _____ _____    ______ ____
ROOT
ATOM      1  CA  TRP A   2      -4.390  24.351  28.824  0.00  0.00    +0.153 C 
ENDROOT
BRANCH   1   4
ATOM      2  C   ALA A   1      -2.847  23.406  30.497  0.00  0.00    +0.238 C 
ATOM      3  O   ALA A   1      -3.744  22.845  31.179  0.00  0.00    -0.274 OA
ATOM      4  N   TRP A   2      -3.094  24.188  29.459  0.00  0.00    -0.297 N 
ATOM      5  H   TRP A   2      -2.297  24.729  29.067  0.00  0.00    +0.150 HD
BRANCH   2   6
ATOM      6  CA  ALA A   1      -1.380  23.230  30.850  0.00  0.00    +0.145 C 
ATOM      7  CB  ALA A   1      -0.950  21.763  30.746  0.00  0.00    +0.028 C 
BRANCH   6   8
ATOM      8  N   ALA A   1      -1.231  23.720  32.212  0.00  0.00    -0.238 NA
ATOM      9  H   ALA A   1      -1.746  23.241  32.978  0.00  0.00    +0.142 HD
ENDBRANCH   6   8
ENDBRANCH   2   6
ENDBRANCH   1   4
BRANCH   1  10
ATOM     10  C   TRP A   2      -4.379  23.490  27.565  0.00  0.00    +0.241 C 
ATOM     11  N   GLU A   3      -5.526  22.936  27.208  0.00  0.00    -0.297 N 
ATOM     12  H   GLU A   3      -6.375  23.078  27.792  0.00  0.00    +0.150 HD
ATOM     13  O   TRP A   2      -3.333  23.334  26.917  0.00  0.00    -0.273 OA
BRANCH  11  14
ATOM     14  CA  GLU A   3      -5.601  22.133  26.006  0.00  0.00    +0.149 C 
BRANCH  14  15
ATOM     15  C   GLU A   3      -6.958  22.128  25.381  0.00  0.00    +0.241 C 
ATOM     16  O   GLU A   3      -7.970  22.098  26.067  0.00  0.00    -0.273 OA
ATOM     17  N   SER A   4      -6.995  22.159  24.068  0.00  0.00    -0.296 N 
ATOM     18  H   SER A   4      -6.114  22.299  23.534  0.00  0.00    +0.150 HD
BRANCH  17  19
ATOM     19  CA  SER A   4      -8.242  22.002  23.355  0.00  0.00    +0.166 C 
BRANCH  19  20
ATOM     20  C   SER A   4      -8.070  21.415  21.939  0.00  0.00    +0.229 C 
ATOM     21  O   SER A   4      -7.190  21.771  21.235  0.00  0.00    -0.286 OA
ENDBRANCH  19  20
BRANCH  19  22
ATOM     22  CB  SER A   4      -9.005  23.321  23.258  0.00  0.00    +0.165 C 
BRANCH  22  23
ATOM     23  OG  SER A   4     -10.226  23.181  22.606  0.00  0.00    -0.380 OA
ATOM     24  H   SER A   4     -10.791  22.536  23.101  0.00  0.00    +0.211 HD
ENDBRANCH  22  23
ENDBRANCH  19  22
ENDBRANCH  17  19
ENDBRANCH  14  15
BRANCH  14  25
ATOM     25  CB  GLU A   3      -5.128  20.721  26.285  0.00  0.00    +0.041 C 
BRANCH  25  26
ATOM     26  CG  GLU A   3      -4.950  19.815  25.071  0.00  0.00    +0.116 C 
BRANCH  26  27
ATOM     27  CD  GLU A   3      -4.237  18.542  25.462  0.00  0.00    +0.365 C 
ATOM     28  OE2 GLU A   3      -4.866  17.702  26.156  0.00  0.00    -0.246 OA
ATOM     29  OE1 GLU A   3      -3.042  18.363  25.098  0.00  0.00    -0.246 OA
ENDBRANCH  26  27
ENDBRANCH  25  26
ENDBRANCH  14  25
ENDBRANCH  11  14
ENDBRANCH   1  10
BRANCH   1  30
ATOM     30  CB  TRP A   2      -4.547  25.839  28.433  0.00  0.00    +0.057 C 
BRANCH  30  31
ATOM     31  CG  TRP A   2      -5.749  26.300  27.667  0.00  0.00    -0.002 A 
ATOM     32  CD1 TRP A   2      -6.796  27.029  28.156  0.00  0.00    +0.068 A 
ATOM     33  NE1 TRP A   2      -7.665  27.341  27.151  0.00  0.00    -0.352 N 
ATOM     34  HE1 TRP A   2      -8.541  27.889  27.265  0.00  0.00    +0.166 HD
ATOM     35  CE2 TRP A   2      -7.208  26.823  25.972  0.00  0.00    +0.056 A 
ATOM     36  CZ2 TRP A   2      -7.754  26.877  24.683  0.00  0.00    +0.017 A 
ATOM     37  CH2 TRP A   2      -7.055  26.265  23.662  0.00  0.00    +0.001 A 
ATOM     38  CZ3 TRP A   2      -5.831  25.628  23.889  0.00  0.00    +0.000 A 
ATOM     39  CE3 TRP A   2      -5.294  25.563  25.185  0.00  0.00    +0.001 A 
ATOM     40  CD2 TRP A   2      -5.988  26.178  26.244  0.00  0.00    +0.013 A 
ENDBRANCH  30  31
ENDBRANCH   1  30
TORSDOF 15
REMARK  Name = ../refined-set-2016/3qdd/3qdd_pocket.pdb
REMARK  215 active torsions:
REMARK  status: ('A' for Active; 'I' for Inactive)
REMARK    1  A    between atoms: _1  and  _3
REMARK    2  A    between atoms: _3  and  _4
REMARK    3  A    between atoms: _3  and  _6
REMARK    4  A    between atoms: _6  and  _7
REMARK    5  A    between atoms: _13  and  _15
REMARK    6  A    between atoms: _15  and  _16
REMARK    7  A    between atoms: _15  and  _18
REMARK    8  A    between atoms: _18  and  _19
REMARK    9  A    between atoms: _22  and  _24
REMARK   10  A    between atoms: _24  and  _25
REMARK   11  A    between atoms: _24  and  _27
REMARK   12  A    between atoms: _27  and  _28
REMARK   13  A    between atoms: _28  and  _29
REMARK   14  A    between atoms: _31  and  _33
REMARK   15  A    between atoms: _33  and  _34
REMARK   16  A    between atoms: _33  and  _36
REMARK   17  A    between atoms: _36  and  _37
REMARK   18  A    between atoms: _37  and  _38
REMARK   19  A    between atoms: _41  and  _43
REMARK   20  A    between atoms: _43  and  _44
REMARK   21  A    between atoms: _43  and  _46
REMARK   22  A    between atoms: _46  and  _47
REMARK   23  A    between atoms: _50  and  _52
REMARK   24  A    between atoms: _52  and  _53
REMARK   25  A    between atoms: _52  and  _55
REMARK   26  A    between atoms: _55  and  _56
REMARK   27  A    between atoms: _59  and  _61
REMARK   28  A    between atoms: _61  and  _62
REMARK   29  A    between atoms: _61  and  _64
REMARK   30  A    between atoms: _64  and  _65
REMARK   31  A    between atoms: _67  and  _69
REMARK   32  A    between atoms: _69  and  _70
REMARK   33  A    between atoms: _69  and  _72
REMARK   34  A    between atoms: _72  and  _73
REMARK   35  A    between atoms: _78  and  _80
REMARK   36  A    between atoms: _80  and  _81
REMARK   37  A    between atoms: _80  and  _83
REMARK   38  A    between atoms: _83  and  _84
REMARK   39  A    between atoms: _86  and  _88
REMARK   40  A    between atoms: _88  and  _89
REMARK   41  A    between atoms: _88  and  _91
REMARK   42  A    between atoms: _91  and  _92
REMARK   43  A    between atoms: _94  and  _96
REMARK   44  A    between atoms: _96  and  _97
REMARK   45  A    between atoms: _96  and  _99
REMARK   46  A    between atoms: _99  and  _100
REMARK   47  A    between atoms: _103  and  _105
REMARK   48  A    between atoms: _105  and  _106
REMARK   49  A    between atoms: _109  and  _111
REMARK   50  A    between atoms: _111  and  _112
REMARK   51  A    between atoms: _111  and  _114
REMARK   52  A    between atoms: _114  and  _115
REMARK   53  A    between atoms: _118  and  _120
REMARK   54  A    between atoms: _120  and  _121
REMARK   55  A    between atoms: _120  and  _123
REMARK   56  A    between atoms: _123  and  _124
REMARK   57  A    between atoms: _124  and  _125
REMARK   58  A    between atoms: _125  and  _126
REMARK   59  A    between atoms: _126  and  _127
REMARK   60  A    between atoms: _131  and  _133
REMARK   61  A    between atoms: _133  and  _134
REMARK   62  A    between atoms: _133  and  _136
REMARK   63  A    between atoms: _136  and  _137
REMARK   64  A    between atoms: _140  and  _142
REMARK   65  A    between atoms: _142  and  _143
REMARK   66  A    between atoms: _142  and  _145
REMARK   67  A    between atoms: _145  and  _146
REMARK   68  A    between atoms: _149  and  _151
REMARK   69  A    between atoms: _151  and  _152
REMARK   70  A    between atoms: _151  and  _154
REMARK   71  A    between atoms: _157  and  _159
REMARK   72  A    between atoms: _159  and  _160
REMARK   73  A    between atoms: _159  and  _162
REMARK   74  A    between atoms: _162  and  _163
REMARK   75  A    between atoms: _166  and  _168
REMARK   76  A    between atoms: _168  and  _169
REMARK   77  A    between atoms: _168  and  _171
REMARK   78  A    between atoms: _171  and  _172
REMARK   79  A    between atoms: _175  and  _177
REMARK   80  A    between atoms: _177  and  _178
REMARK   81  A    between atoms: _180  and  _182
REMARK   82  A    between atoms: _182  and  _183
REMARK   83  A    between atoms: _182  and  _185
REMARK   84  A    between atoms: _185  and  _186
REMARK   85  A    between atoms: _189  and  _191
REMARK   86  A    between atoms: _191  and  _192
REMARK   87  A    between atoms: _194  and  _196
REMARK   88  A    between atoms: _196  and  _197
REMARK   89  A    between atoms: _196  and  _199
REMARK   90  A    between atoms: _199  and  _200
REMARK   91  A    between atoms: _200  and  _201
REMARK   92  A    between atoms: _203  and  _205
REMARK   93  A    between atoms: _205  and  _206
REMARK   94  A    between atoms: _205  and  _208
REMARK   95  A    between atoms: _208  and  _209
REMARK   96  A    between atoms: _212  and  _214
REMARK   97  A    between atoms: _214  and  _215
REMARK   98  A    between atoms: _214  and  _217
REMARK   99  A    between atoms: _217  and  _218
REMARK  100  A    between atoms: _221  and  _223
REMARK  101  A    between atoms: _223  and  _224
REMARK  102  A    between atoms: _223  and  _226
REMARK  103  A    between atoms: _226  and  _227
REMARK  104  A    between atoms: _230  and  _232
REMARK  105  A    between atoms: _232  and  _233
REMARK  106  A    between atoms: _232  and  _235
REMARK  107  A    between atoms: _235  and  _236
REMARK  108  A    between atoms: _239  and  _241
REMARK  109  A    between atoms: _241  and  _242
REMARK  110  A    between atoms: _241  and  _244
REMARK  111  A    between atoms: _244  and  _245
REMARK  112  A    between atoms: _250  and  _252
REMARK  113  A    between atoms: _252  and  _253
REMARK  114  A    between atoms: _252  and  _255
REMARK  115  A    between atoms: _255  and  _256
REMARK  116  A    between atoms: _259  and  _261
REMARK  117  A    between atoms: _261  and  _262
REMARK  118  A    between atoms: _264  and  _266
REMARK  119  A    between atoms: _266  and  _267
REMARK  120  A    between atoms: _270  and  _272
REMARK  121  A    between atoms: _272  and  _273
REMARK  122  A    between atoms: _275  and  _277
REMARK  123  A    between atoms: _277  and  _278
REMARK  124  A    between atoms: _277  and  _280
REMARK  125  A    between atoms: _283  and  _285
REMARK  126  A    between atoms: _285  and  _286
REMARK  127  A    between atoms: _288  and  _290
REMARK  128  A    between atoms: _290  and  _291
REMARK  129  A    between atoms: _290  and  _293
REMARK  130  A    between atoms: _293  and  _294
REMARK  131  A    between atoms: _300  and  _302
REMARK  132  A    between atoms: _302  and  _303
REMARK  133  A    between atoms: _302  and  _305
REMARK  134  A    between atoms: _305  and  _306
REMARK  135  A    between atoms: _311  and  _312
REMARK  136  A    between atoms: _314  and  _316
REMARK  137  A    between atoms: _316  and  _317
REMARK  138  A    between atoms: _316  and  _319
REMARK  139  A    between atoms: _319  and  _320
REMARK  140  A    between atoms: _325  and  _326
REMARK  141  A    between atoms: _328  and  _330
REMARK  142  A    between atoms: _330  and  _331
REMARK  143  A    between atoms: _330  and  _333
REMARK  144  A    between atoms: _336  and  _338
REMARK  145  A    between atoms: _338  and  _339
REMARK  146  A    between atoms: _338  and  _341
REMARK  147  A    between atoms: _341  and  _342
REMARK  148  A    between atoms: _345  and  _347
REMARK  149  A    between atoms: _347  and  _348
REMARK  150  A    between atoms: _347  and  _350
REMARK  151  A    between atoms: _353  and  _355
REMARK  152  A    between atoms: _355  and  _356
REMARK  153  A    between atoms: _355  and  _358
REMARK  154  A    between atoms: _358  and  _359
REMARK  155  A    between atoms: _362  and  _364
REMARK  156  A    between atoms: _364  and  _365
REMARK  157  A    between atoms: _364  and  _367
REMARK  158  A    between atoms: _367  and  _368
REMARK  159  A    between atoms: _371  and  _373
REMARK  160  A    between atoms: _373  and  _374
REMARK  161  A    between atoms: _373  and  _376
REMARK  162  A    between atoms: _376  and  _377
REMARK  163  A    between atoms: _377  and  _378
REMARK  164  A    between atoms: _378  and  _379
REMARK  165  A    between atoms: _379  and  _380
REMARK  166  A    between atoms: _384  and  _386
REMARK  167  A    between atoms: _386  and  _387
REMARK  168  A    between atoms: _386  and  _389
REMARK  169  A    between atoms: _389  and  _390
REMARK  170  A    between atoms: _395  and  _397
REMARK  171  A    between atoms: _397  and  _398
REMARK  172  A    between atoms: _401  and  _403
REMARK  173  A    between atoms: _403  and  _404
REMARK  174  A    between atoms: _403  and  _406
REMARK  175  A    between atoms: _406  and  _407
REMARK  176  A    between atoms: _417  and  _419
REMARK  177  A    between atoms: _419  and  _420
REMARK  178  A    between atoms: _419  and  _422
REMARK  179  A    between atoms: _422  and  _423
REMARK  180  A    between atoms: _423  and  _424
REMARK  181  A    between atoms: _427  and  _429
REMARK  182  A    between atoms: _429  and  _430
REMARK  183  A    between atoms: _429  and  _432
REMARK  184  A    between atoms: _432  and  _433
REMARK  185  A    between atoms: _435  and  _437
REMARK  186  A    between atoms: _437  and  _438
REMARK  187  A    between atoms: _437  and  _440
REMARK  188  A    between atoms: _440  and  _441
REMARK  189  A    between atoms: _447  and  _449
REMARK  190  A    between atoms: _449  and  _450
REMARK  191  A    between atoms: _449  and  _452
REMARK  192  A    between atoms: _452  and  _453
REMARK  193  A    between atoms: _456  and  _458
REMARK  194  A    between atoms: _458  and  _459
REMARK  195  A    between atoms: _458  and  _461
REMARK  196  A    between atoms: _464  and  _466
REMARK  197  A    between atoms: _466  and  _467
REMARK  198  A    between atoms: _469  and  _471
REMARK  199  A    between atoms: _471  and  _472
REMARK  200  A    between atoms: _471  and  _474
REMARK  201  A    between atoms: _474  and  _475
REMARK  202  A    between atoms: _478  and  _480
REMARK  203  A    between atoms: _480  and  _481
REMARK  204  A    between atoms: _480  and  _483
REMARK  205  A    between atoms: _483  and  _484
REMARK  206  A    between atoms: _484  and  _485
REMARK  207  A    between atoms: _485  and  _486
REMARK  208  A    between atoms: _486  and  _487
REMARK  209  A    between atoms: _491  and  _493
REMARK  210  A    between atoms: _493  and  _494
REMARK  211  A    between atoms: _493  and  _496
REMARK  212  A    between atoms: _499  and  _501
REMARK  213  A    between atoms: _501  and  _502
REMARK  214  A    between atoms: _501  and  _504
REMARK  215  A    between atoms: _504  and  _505
REMARK                            x       y       z     vdW  Elec       q    Type
REMARK                         _______ _______ _______ _____ _____    ______ ____
ROOT
ATOM      1  CA  THR A   2      -9.129  21.644  29.777  0.00  0.00    +0.176 C 
ENDROOT
BRANCH   1   4
ATOM      2  C   PHE A   1     -10.721  22.493  28.193  0.00  0.00    +0.239 C 
ATOM      3  O   PHE A   1     -11.630  22.467  29.016  0.00  0.00    -0.274 OA
ATOM      4  N   THR A   2      -9.487  22.097  28.458  0.00  0.00    -0.295 N 
ATOM      5  H   THR A   2      -8.768  22.113  27.706  0.00  0.00    +0.150 HD
BRANCH   2   6
ATOM      6  CA  PHE A   1     -10.963  22.999  26.791  0.00  0.00    +0.149 C 
BRANCH   6   7
ATOM      7  N   PHE A   1     -12.375  22.983  26.534  0.00  0.00    -0.238 NA
ATOM      8  H   PHE A   1     -13.013  23.245  27.312  0.00  0.00    +0.142 HD
ENDBRANCH   6   7
BRANCH   6   9
ATOM      9  CB  PHE A   1     -10.383  24.400  26.557  0.00  0.00    +0.053 C 
BRANCH   9  10
ATOM     10  CG  PHE A   1     -10.862  25.467  27.516  0.00  0.00    -0.020 A 
ATOM     11  CD2 PHE A   1     -10.143  25.750  28.708  0.00  0.00    -0.004 A 
ATOM     12  CE2 PHE A   1     -10.583  26.761  29.566  0.00  0.00    -0.000 A 
ATOM     13  CZ  PHE A   1     -11.702  27.486  29.279  0.00  0.00    -0.000 A 
ATOM     14  CE1 PHE A   1     -12.427  27.227  28.109  0.00  0.00    -0.000 A 
ATOM     15  CD1 PHE A   1     -12.013  26.199  27.250  0.00  0.00    -0.004 A 
ENDBRANCH   9  10
ENDBRANCH   6   9
ENDBRANCH   2   6
ENDBRANCH   1   4
BRANCH   1  16
ATOM     16  C   THR A   2      -8.028  22.513  30.334  0.00  0.00    +0.243 C 
ATOM     17  N   VAL A   3      -7.964  22.562  31.652  0.00  0.00    -0.298 N 
ATOM     18  H   VAL A   3      -8.734  22.135  32.206  0.00  0.00    +0.150 HD
ATOM     19  O   THR A   2      -7.225  23.090  29.583  0.00  0.00    -0.273 OA
BRANCH  17  20
ATOM     20  CA  VAL A   3      -6.868  23.185  32.354  0.00  0.00    +0.137 C 
BRANCH  20  21
ATOM     21  CB  VAL A   3      -7.230  24.567  32.897  0.00  0.00    +0.026 C 
ATOM     22  CG2 VAL A   3      -6.025  25.160  33.770  0.00  0.00    +0.002 C 
ATOM     23  CG1 VAL A   3      -7.633  25.501  31.769  0.00  0.00    +0.002 C 
ENDBRANCH  20  21
BRANCH  20  24
ATOM     24  C   VAL A   3      -6.474  22.269  33.525  0.00  0.00    +0.227 C 
ATOM     25  O   VAL A   3      -7.325  21.708  34.236  0.00  0.00    -0.286 OA
ENDBRANCH  20  24
ENDBRANCH  17  20
ENDBRANCH   1  16
BRANCH   1  26
ATOM     26  CB  THR A   2      -8.659  20.208  29.801  0.00  0.00    +0.137 C 
ATOM     27  CG2 THR A   2      -9.789  19.197  29.366  0.00  0.00    +0.034 C 
BRANCH  26  28
ATOM     28  OG1 THR A   2      -7.454  20.103  29.030  0.00  0.00    -0.382 OA
ATOM     29  HG1 THR A   2      -6.760  20.690  29.422  0.00  0.00    +0.210 HD
ENDBRANCH  26  28
ENDBRANCH   1  26
TORSDOF 11
REMARK  Name = ../refined-set-2016/3qdd/3qdd_pocket.pdb
REMARK  215 active torsions:
REMARK  status: ('A' for Active; 'I' for Inactive)
REMARK    1  A    between atoms: _1  and  _3
REMARK    2  A    between atoms: _3  and  _4
REMARK    3  A    between atoms: _3  and  _6
REMARK    4  A    between atoms: _6  and  _7
REMARK    5  A    between atoms: _13  and  _15
REMARK    6  A    between atoms: _15  and  _16
REMARK    7  A    between atoms: _15  and  _18
REMARK    8  A    between atoms: _18  and  _19
REMARK    9  A    between atoms: _22  and  _24
REMARK   10  A    between atoms: _24  and  _25
REMARK   11  A    between atoms: _24  and  _27
REMARK   12  A    between atoms: _27  and  _28
REMARK   13  A    between atoms: _28  and  _29
REMARK   14  A    between atoms: _31  and  _33
REMARK   15  A    between atoms: _33  and  _34
REMARK   16  A    between atoms: _33  and  _36
REMARK   17  A    between atoms: _36  and  _37
REMARK   18  A    between atoms: _37  and  _38
REMARK   19  A    between atoms: _41  and  _43
REMARK   20  A    between atoms: _43  and  _44
REMARK   21  A    between atoms: _43  and  _46
REMARK   22  A    between atoms: _46  and  _47
REMARK   23  A    between atoms: _50  and  _52
REMARK   24  A    between atoms: _52  and  _53
REMARK   25  A    between atoms: _52  and  _55
REMARK   26  A    between atoms: _55  and  _56
REMARK   27  A    between atoms: _59  and  _61
REMARK   28  A    between atoms: _61  and  _62
REMARK   29  A    between atoms: _61  and  _64
REMARK   30  A    between atoms: _64  and  _65
REMARK   31  A    between atoms: _67  and  _69
REMARK   32  A    between atoms: _69  and  _70
REMARK   33  A    between atoms: _69  and  _72
REMARK   34  A    between atoms: _72  and  _73
REMARK   35  A    between atoms: _78  and  _80
REMARK   36  A    between atoms: _80  and  _81
REMARK   37  A    between atoms: _80  and  _83
REMARK   38  A    between atoms: _83  and  _84
REMARK   39  A    between atoms: _86  and  _88
REMARK   40  A    between atoms: _88  and  _89
REMARK   41  A    between atoms: _88  and  _91
REMARK   42  A    between atoms: _91  and  _92
REMARK   43  A    between atoms: _94  and  _96
REMARK   44  A    between atoms: _96  and  _97
REMARK   45  A    between atoms: _96  and  _99
REMARK   46  A    between atoms: _99  and  _100
REMARK   47  A    between atoms: _103  and  _105
REMARK   48  A    between atoms: _105  and  _106
REMARK   49  A    between atoms: _109  and  _111
REMARK   50  A    between atoms: _111  and  _112
REMARK   51  A    between atoms: _111  and  _114
REMARK   52  A    between atoms: _114  and  _115
REMARK   53  A    between atoms: _118  and  _120
REMARK   54  A    between atoms: _120  and  _121
REMARK   55  A    between atoms: _120  and  _123
REMARK   56  A    between atoms: _123  and  _124
REMARK   57  A    between atoms: _124  and  _125
REMARK   58  A    between atoms: _125  and  _126
REMARK   59  A    between atoms: _126  and  _127
REMARK   60  A    between atoms: _131  and  _133
REMARK   61  A    between atoms: _133  and  _134
REMARK   62  A    between atoms: _133  and  _136
REMARK   63  A    between atoms: _136  and  _137
REMARK   64  A    between atoms: _140  and  _142
REMARK   65  A    between atoms: _142  and  _143
REMARK   66  A    between atoms: _142  and  _145
REMARK   67  A    between atoms: _145  and  _146
REMARK   68  A    between atoms: _149  and  _151
REMARK   69  A    between atoms: _151  and  _152
REMARK   70  A    between atoms: _151  and  _154
REMARK   71  A    between atoms: _157  and  _159
REMARK   72  A    between atoms: _159  and  _160
REMARK   73  A    between atoms: _159  and  _162
REMARK   74  A    between atoms: _162  and  _163
REMARK   75  A    between atoms: _166  and  _168
REMARK   76  A    between atoms: _168  and  _169
REMARK   77  A    between atoms: _168  and  _171
REMARK   78  A    between atoms: _171  and  _172
REMARK   79  A    between atoms: _175  and  _177
REMARK   80  A    between atoms: _177  and  _178
REMARK   81  A    between atoms: _180  and  _182
REMARK   82  A    between atoms: _182  and  _183
REMARK   83  A    between atoms: _182  and  _185
REMARK   84  A    between atoms: _185  and  _186
REMARK   85  A    between atoms: _189  and  _191
REMARK   86  A    between atoms: _191  and  _192
REMARK   87  A    between atoms: _194  and  _196
REMARK   88  A    between atoms: _196  and  _197
REMARK   89  A    between atoms: _196  and  _199
REMARK   90  A    between atoms: _199  and  _200
REMARK   91  A    between atoms: _200  and  _201
REMARK   92  A    between atoms: _203  and  _205
REMARK   93  A    between atoms: _205  and  _206
REMARK   94  A    between atoms: _205  and  _208
REMARK   95  A    between atoms: _208  and  _209
REMARK   96  A    between atoms: _212  and  _214
REMARK   97  A    between atoms: _214  and  _215
REMARK   98  A    between atoms: _214  and  _217
REMARK   99  A    between atoms: _217  and  _218
REMARK  100  A    between atoms: _221  and  _223
REMARK  101  A    between atoms: _223  and  _224
REMARK  102  A    between atoms: _223  and  _226
REMARK  103  A    between atoms: _226  and  _227
REMARK  104  A    between atoms: _230  and  _232
REMARK  105  A    between atoms: _232  and  _233
REMARK  106  A    between atoms: _232  and  _235
REMARK  107  A    between atoms: _235  and  _236
REMARK  108  A    between atoms: _239  and  _241
REMARK  109  A    between atoms: _241  and  _242
REMARK  110  A    between atoms: _241  and  _244
REMARK  111  A    between atoms: _244  and  _245
REMARK  112  A    between atoms: _250  and  _252
REMARK  113  A    between atoms: _252  and  _253
REMARK  114  A    between atoms: _252  and  _255
REMARK  115  A    between atoms: _255  and  _256
REMARK  116  A    between atoms: _259  and  _261
REMARK  117  A    between atoms: _261  and  _262
REMARK  118  A    between atoms: _264  and  _266
REMARK  119  A    between atoms: _266  and  _267
REMARK  120  A    between atoms: _270  and  _272
REMARK  121  A    between atoms: _272  and  _273
REMARK  122  A    between atoms: _275  and  _277
REMARK  123  A    between atoms: _277  and  _278
REMARK  124  A    between atoms: _277  and  _280
REMARK  125  A    between atoms: _283  and  _285
REMARK  126  A    between atoms: _285  and  _286
REMARK  127  A    between atoms: _288  and  _290
REMARK  128  A    between atoms: _290  and  _291
REMARK  129  A    between atoms: _290  and  _293
REMARK  130  A    between atoms: _293  and  _294
REMARK  131  A    between atoms: _300  and  _302
REMARK  132  A    between atoms: _302  and  _303
REMARK  133  A    between atoms: _302  and  _305
REMARK  134  A    between atoms: _305  and  _306
REMARK  135  A    between atoms: _311  and  _312
REMARK  136  A    between atoms: _314  and  _316
REMARK  137  A    between atoms: _316  and  _317
REMARK  138  A    between atoms: _316  and  _319
REMARK  139  A    between atoms: _319  and  _320
REMARK  140  A    between atoms: _325  and  _326
REMARK  141  A    between atoms: _328  and  _330
REMARK  142  A    between atoms: _330  and  _331
REMARK  143  A    between atoms: _330  and  _333
REMARK  144  A    between atoms: _336  and  _338
REMARK  145  A    between atoms: _338  and  _339
REMARK  146  A    between atoms: _338  and  _341
REMARK  147  A    between atoms: _341  and  _342
REMARK  148  A    between atoms: _345  and  _347
REMARK  149  A    between atoms: _347  and  _348
REMARK  150  A    between atoms: _347  and  _350
REMARK  151  A    between atoms: _353  and  _355
REMARK  152  A    between atoms: _355  and  _356
REMARK  153  A    between atoms: _355  and  _358
REMARK  154  A    between atoms: _358  and  _359
REMARK  155  A    between atoms: _362  and  _364
REMARK  156  A    between atoms: _364  and  _365
REMARK  157  A    between atoms: _364  and  _367
REMARK  158  A    between atoms: _367  and  _368
REMARK  159  A    between atoms: _371  and  _373
REMARK  160  A    between atoms: _373  and  _374
REMARK  161  A    between atoms: _373  and  _376
REMARK  162  A    between atoms: _376  and  _377
REMARK  163  A    between atoms: _377  and  _378
REMARK  164  A    between atoms: _378  and  _379
REMARK  165  A    between atoms: _379  and  _380
REMARK  166  A    between atoms: _384  and  _386
REMARK  167  A    between atoms: _386  and  _387
REMARK  168  A    between atoms: _386  and  _389
REMARK  169  A    between atoms: _389  and  _390
REMARK  170  A    between atoms: _395  and  _397
REMARK  171  A    between atoms: _397  and  _398
REMARK  172  A    between atoms: _401  and  _403
REMARK  173  A    between atoms: _403  and  _404
REMARK  174  A    between atoms: _403  and  _406
REMARK  175  A    between atoms: _406  and  _407
REMARK  176  A    between atoms: _417  and  _419
REMARK  177  A    between atoms: _419  and  _420
REMARK  178  A    between atoms: _419  and  _422
REMARK  179  A    between atoms: _422  and  _423
REMARK  180  A    between atoms: _423  and  _424
REMARK  181  A    between atoms: _427  and  _429
REMARK  182  A    between atoms: _429  and  _430
REMARK  183  A    between atoms: _429  and  _432
REMARK  184  A    between atoms: _432  and  _433
REMARK  185  A    between atoms: _435  and  _437
REMARK  186  A    between atoms: _437  and  _438
REMARK  187  A    between atoms: _437  and  _440
REMARK  188  A    between atoms: _440  and  _441
REMARK  189  A    between atoms: _447  and  _449
REMARK  190  A    between atoms: _449  and  _450
REMARK  191  A    between atoms: _449  and  _452
REMARK  192  A    between atoms: _452  and  _453
REMARK  193  A    between atoms: _456  and  _458
REMARK  194  A    between atoms: _458  and  _459
REMARK  195  A    between atoms: _458  and  _461
REMARK  196  A    between atoms: _464  and  _466
REMARK  197  A    between atoms: _466  and  _467
REMARK  198  A    between atoms: _469  and  _471
REMARK  199  A    between atoms: _471  and  _472
REMARK  200  A    between atoms: _471  and  _474
REMARK  201  A    between atoms: _474  and  _475
REMARK  202  A    between atoms: _478  and  _480
REMARK  203  A    between atoms: _480  and  _481
REMARK  204  A    between atoms: _480  and  _483
REMARK  205  A    between atoms: _483  and  _484
REMARK  206  A    between atoms: _484  and  _485
REMARK  207  A    between atoms: _485  and  _486
REMARK  208  A    between atoms: _486  and  _487
REMARK  209  A    between atoms: _491  and  _493
REMARK  210  A    between atoms: _493  and  _494
REMARK  211  A    between atoms: _493  and  _496
REMARK  212  A    between atoms: _499  and  _501
REMARK  213  A    between atoms: _501  and  _502
REMARK  214  A    between atoms: _501  and  _504
REMARK  215  A    between atoms: _504  and  _505
REMARK                            x       y       z     vdW  Elec       q    Type
REMARK                         _______ _______ _______ _____ _____    ______ ____
ROOT
ATOM      1  CA  LYS A   3       4.727  27.307  25.084  0.00  0.00    +0.149 C 
ENDROOT
BRANCH   1   3
ATOM      2  C   THR A   2       4.950  29.428  26.203  0.00  0.00    +0.243 C 
ATOM      3  N   LYS A   3       4.459  28.219  26.162  0.00  0.00    -0.297 N 
ATOM      4  H   LYS A   3       3.848  27.903  26.942  0.00  0.00    +0.150 HD
ATOM      5  O   THR A   2       5.772  29.835  25.456  0.00  0.00    -0.273 OA
BRANCH   2   6
ATOM      6  CA  THR A   2       4.389  30.306  27.295  0.00  0.00    +0.176 C 
BRANCH   6   9
ATOM      7  C   GLY A   1       5.413  31.334  29.255  0.00  0.00    +0.240 C 
ATOM      8  O   GLY A   1       4.625  30.887  30.033  0.00  0.00    -0.274 OA
ATOM      9  N   THR A   2       5.393  31.107  27.949  0.00  0.00    -0.295 N 
ATOM     10  H   THR A   2       6.142  31.530  27.365  0.00  0.00    +0.150 HD
BRANCH   7  11
ATOM     11  CA  GLY A   1       6.527  32.243  29.713  0.00  0.00    +0.169 C 
BRANCH  11  12
ATOM     12  N   GLY A   1       6.817  32.275  31.121  0.00  0.00    -0.236 NA
ATOM     13  H   GLY A   1       6.051  32.416  31.811  0.00  0.00    +0.142 HD
ENDBRANCH  11  12
ENDBRANCH   7  11
ENDBRANCH   6   9
BRANCH   6  14
ATOM     14  CB  THR A   2       3.290  31.225  26.727  0.00  0.00    +0.137 C 
ATOM     15  CG2 THR A   2       2.218  30.476  26.035  0.00  0.00    +0.034 C 
BRANCH  14  16
ATOM     16  OG1 THR A   2       2.740  31.996  27.768  0.00  0.00    -0.382 OA
ATOM     17  HG1 THR A   2       2.349  31.395  28.451  0.00  0.00    +0.210 HD
ENDBRANCH  14  16
ENDBRANCH   6  14
ENDBRANCH   2   6
ENDBRANCH   1   3
BRANCH   1  18
ATOM     18  C   LYS A   3       3.423  26.963  24.426  0.00  0.00    +0.241 C 
ATOM     19  O   LYS A   3       2.544  26.406  25.088  0.00  0.00    -0.273 OA
ATOM     20  N   VAL A   4       3.293  27.314  23.155  0.00  0.00    -0.297 N 
ATOM     21  H   VAL A   4       4.029  27.901  22.713  0.00  0.00    +0.150 HD
BRANCH  20  22
ATOM     22  CA  VAL A   4       2.135  26.895  22.355  0.00  0.00    +0.149 C 
BRANCH  22  23
ATOM     23  C   VAL A   4       2.558  25.694  21.498  0.00  0.00    +0.241 C 
ATOM     24  N   ILE A   5       1.987  24.534  21.812  0.00  0.00    -0.298 N 
ATOM     25  H   ILE A   5       1.242  24.525  22.538  0.00  0.00    +0.150 HD
ATOM     26  O   VAL A   4       3.372  25.839  20.565  0.00  0.00    -0.273 OA
BRANCH  24  27
ATOM     27  CA  ILE A   5       2.369  23.257  21.170  0.00  0.00    +0.137 C 
BRANCH  27  28
ATOM     28  C   ILE A   5       1.256  22.924  20.154  0.00  0.00    +0.227 C 
ATOM     29  O   ILE A   5       0.128  22.626  20.546  0.00  0.00    -0.286 OA
ENDBRANCH  27  28
BRANCH  27  30
ATOM     30  CB  ILE A   5       2.500  22.101  22.189  0.00  0.00    +0.026 C 
ATOM     31  CG2 ILE A   5       2.917  20.789  21.459  0.00  0.00    +0.002 C 
BRANCH  30  32
ATOM     32  CG1 ILE A   5       3.434  22.500  23.327  0.00  0.00    +0.002 C 
ATOM     33  CD1 ILE A   5       3.454  21.524  24.497  0.00  0.00    +0.000 C 
ENDBRANCH  30  32
ENDBRANCH  27  30
ENDBRANCH  24  27
ENDBRANCH  22  23
BRANCH  22  34
ATOM     34  CB  VAL A   4       1.585  28.018  21.491  0.00  0.00    +0.027 C 
ATOM     35  CG2 VAL A   4       1.222  29.259  22.362  0.00  0.00    +0.002 C 
ATOM     36  CG1 VAL A   4       0.344  27.487  20.630  0.00  0.00    +0.002 C 
ENDBRANCH  22  34
ENDBRANCH  20  22
ENDBRANCH   1  18
BRANCH   1  37
ATOM     37  CB  LYS A   3       5.356  25.982  25.581  0.00  0.00    +0.029 C 
BRANCH  37  38
ATOM     38  CG  LYS A   3       6.608  26.126  26.302  0.00  0.00    +0.000 C 
BRANCH  38  39
ATOM     39  CD  LYS A   3       7.190  24.731  26.647  0.00  0.00    -0.024 C 
BRANCH  39  40
ATOM     40  CE  LYS A   3       8.481  24.888  27.431  0.00  0.00    -0.086 C 
BRANCH  40  41
ATOM     41  NZ  LYS A   3       9.068  23.570  27.771  0.00  0.00    +0.380 N 
ATOM     42  HZ1 LYS A   3       8.393  23.030  28.349  0.00  0.00    -0.089 HD
ATOM     43  HZ2 LYS A   3       9.948  23.712  28.306  0.00  0.00    -0.089 HD
ATOM     44  HZ3 LYS A   3       9.273  23.047  26.896  0.00  0.00    -0.089 HD
ENDBRANCH  40  41
ENDBRANCH  39  40
ENDBRANCH  38  39
ENDBRANCH  37  38
ENDBRANCH   1  37
TORSDOF 20
REMARK  Name = ../refined-set-2016/3qdd/3qdd_pocket.pdb
REMARK  215 active torsions:
REMARK  status: ('A' for Active; 'I' for Inactive)
REMARK    1  A    between atoms: _1  and  _3
REMARK    2  A    between atoms: _3  and  _4
REMARK    3  A    between atoms: _3  and  _6
REMARK    4  A    between atoms: _6  and  _7
REMARK    5  A    between atoms: _13  and  _15
REMARK    6  A    between atoms: _15  and  _16
REMARK    7  A    between atoms: _15  and  _18
REMARK    8  A    between atoms: _18  and  _19
REMARK    9  A    between atoms: _22  and  _24
REMARK   10  A    between atoms: _24  and  _25
REMARK   11  A    between atoms: _24  and  _27
REMARK   12  A    between atoms: _27  and  _28
REMARK   13  A    between atoms: _28  and  _29
REMARK   14  A    between atoms: _31  and  _33
REMARK   15  A    between atoms: _33  and  _34
REMARK   16  A    between atoms: _33  and  _36
REMARK   17  A    between atoms: _36  and  _37
REMARK   18  A    between atoms: _37  and  _38
REMARK   19  A    between atoms: _41  and  _43
REMARK   20  A    between atoms: _43  and  _44
REMARK   21  A    between atoms: _43  and  _46
REMARK   22  A    between atoms: _46  and  _47
REMARK   23  A    between atoms: _50  and  _52
REMARK   24  A    between atoms: _52  and  _53
REMARK   25  A    between atoms: _52  and  _55
REMARK   26  A    between atoms: _55  and  _56
REMARK   27  A    between atoms: _59  and  _61
REMARK   28  A    between atoms: _61  and  _62
REMARK   29  A    between atoms: _61  and  _64
REMARK   30  A    between atoms: _64  and  _65
REMARK   31  A    between atoms: _67  and  _69
REMARK   32  A    between atoms: _69  and  _70
REMARK   33  A    between atoms: _69  and  _72
REMARK   34  A    between atoms: _72  and  _73
REMARK   35  A    between atoms: _78  and  _80
REMARK   36  A    between atoms: _80  and  _81
REMARK   37  A    between atoms: _80  and  _83
REMARK   38  A    between atoms: _83  and  _84
REMARK   39  A    between atoms: _86  and  _88
REMARK   40  A    between atoms: _88  and  _89
REMARK   41  A    between atoms: _88  and  _91
REMARK   42  A    between atoms: _91  and  _92
REMARK   43  A    between atoms: _94  and  _96
REMARK   44  A    between atoms: _96  and  _97
REMARK   45  A    between atoms: _96  and  _99
REMARK   46  A    between atoms: _99  and  _100
REMARK   47  A    between atoms: _103  and  _105
REMARK   48  A    between atoms: _105  and  _106
REMARK   49  A    between atoms: _109  and  _111
REMARK   50  A    between atoms: _111  and  _112
REMARK   51  A    between atoms: _111  and  _114
REMARK   52  A    between atoms: _114  and  _115
REMARK   53  A    between atoms: _118  and  _120
REMARK   54  A    between atoms: _120  and  _121
REMARK   55  A    between atoms: _120  and  _123
REMARK   56  A    between atoms: _123  and  _124
REMARK   57  A    between atoms: _124  and  _125
REMARK   58  A    between atoms: _125  and  _126
REMARK   59  A    between atoms: _126  and  _127
REMARK   60  A    between atoms: _131  and  _133
REMARK   61  A    between atoms: _133  and  _134
REMARK   62  A    between atoms: _133  and  _136
REMARK   63  A    between atoms: _136  and  _137
REMARK   64  A    between atoms: _140  and  _142
REMARK   65  A    between atoms: _142  and  _143
REMARK   66  A    between atoms: _142  and  _145
REMARK   67  A    between atoms: _145  and  _146
REMARK   68  A    between atoms: _149  and  _151
REMARK   69  A    between atoms: _151  and  _152
REMARK   70  A    between atoms: _151  and  _154
REMARK   71  A    between atoms: _157  and  _159
REMARK   72  A    between atoms: _159  and  _160
REMARK   73  A    between atoms: _159  and  _162
REMARK   74  A    between atoms: _162  and  _163
REMARK   75  A    between atoms: _166  and  _168
REMARK   76  A    between atoms: _168  and  _169
REMARK   77  A    between atoms: _168  and  _171
REMARK   78  A    between atoms: _171  and  _172
REMARK   79  A    between atoms: _175  and  _177
REMARK   80  A    between atoms: _177  and  _178
REMARK   81  A    between atoms: _180  and  _182
REMARK   82  A    between atoms: _182  and  _183
REMARK   83  A    between atoms: _182  and  _185
REMARK   84  A    between atoms: _185  and  _186
REMARK   85  A    between atoms: _189  and  _191
REMARK   86  A    between atoms: _191  and  _192
REMARK   87  A    between atoms: _194  and  _196
REMARK   88  A    between atoms: _196  and  _197
REMARK   89  A    between atoms: _196  and  _199
REMARK   90  A    between atoms: _199  and  _200
REMARK   91  A    between atoms: _200  and  _201
REMARK   92  A    between atoms: _203  and  _205
REMARK   93  A    between atoms: _205  and  _206
REMARK   94  A    between atoms: _205  and  _208
REMARK   95  A    between atoms: _208  and  _209
REMARK   96  A    between atoms: _212  and  _214
REMARK   97  A    between atoms: _214  and  _215
REMARK   98  A    between atoms: _214  and  _217
REMARK   99  A    between atoms: _217  and  _218
REMARK  100  A    between atoms: _221  and  _223
REMARK  101  A    between atoms: _223  and  _224
REMARK  102  A    between atoms: _223  and  _226
REMARK  103  A    between atoms: _226  and  _227
REMARK  104  A    between atoms: _230  and  _232
REMARK  105  A    between atoms: _232  and  _233
REMARK  106  A    between atoms: _232  and  _235
REMARK  107  A    between atoms: _235  and  _236
REMARK  108  A    between atoms: _239  and  _241
REMARK  109  A    between atoms: _241  and  _242
REMARK  110  A    between atoms: _241  and  _244
REMARK  111  A    between atoms: _244  and  _245
REMARK  112  A    between atoms: _250  and  _252
REMARK  113  A    between atoms: _252  and  _253
REMARK  114  A    between atoms: _252  and  _255
REMARK  115  A    between atoms: _255  and  _256
REMARK  116  A    between atoms: _259  and  _261
REMARK  117  A    between atoms: _261  and  _262
REMARK  118  A    between atoms: _264  and  _266
REMARK  119  A    between atoms: _266  and  _267
REMARK  120  A    between atoms: _270  and  _272
REMARK  121  A    between atoms: _272  and  _273
REMARK  122  A    between atoms: _275  and  _277
REMARK  123  A    between atoms: _277  and  _278
REMARK  124  A    between atoms: _277  and  _280
REMARK  125  A    between atoms: _283  and  _285
REMARK  126  A    between atoms: _285  and  _286
REMARK  127  A    between atoms: _288  and  _290
REMARK  128  A    between atoms: _290  and  _291
REMARK  129  A    between atoms: _290  and  _293
REMARK  130  A    between atoms: _293  and  _294
REMARK  131  A    between atoms: _300  and  _302
REMARK  132  A    between atoms: _302  and  _303
REMARK  133  A    between atoms: _302  and  _305
REMARK  134  A    between atoms: _305  and  _306
REMARK  135  A    between atoms: _311  and  _312
REMARK  136  A    between atoms: _314  and  _316
REMARK  137  A    between atoms: _316  and  _317
REMARK  138  A    between atoms: _316  and  _319
REMARK  139  A    between atoms: _319  and  _320
REMARK  140  A    between atoms: _325  and  _326
REMARK  141  A    between atoms: _328  and  _330
REMARK  142  A    between atoms: _330  and  _331
REMARK  143  A    between atoms: _330  and  _333
REMARK  144  A    between atoms: _336  and  _338
REMARK  145  A    between atoms: _338  and  _339
REMARK  146  A    between atoms: _338  and  _341
REMARK  147  A    between atoms: _341  and  _342
REMARK  148  A    between atoms: _345  and  _347
REMARK  149  A    between atoms: _347  and  _348
REMARK  150  A    between atoms: _347  and  _350
REMARK  151  A    between atoms: _353  and  _355
REMARK  152  A    between atoms: _355  and  _356
REMARK  153  A    between atoms: _355  and  _358
REMARK  154  A    between atoms: _358  and  _359
REMARK  155  A    between atoms: _362  and  _364
REMARK  156  A    between atoms: _364  and  _365
REMARK  157  A    between atoms: _364  and  _367
REMARK  158  A    between atoms: _367  and  _368
REMARK  159  A    between atoms: _371  and  _373
REMARK  160  A    between atoms: _373  and  _374
REMARK  161  A    between atoms: _373  and  _376
REMARK  162  A    between atoms: _376  and  _377
REMARK  163  A    between atoms: _377  and  _378
REMARK  164  A    between atoms: _378  and  _379
REMARK  165  A    between atoms: _379  and  _380
REMARK  166  A    between atoms: _384  and  _386
REMARK  167  A    between atoms: _386  and  _387
REMARK  168  A    between atoms: _386  and  _389
REMARK  169  A    between atoms: _389  and  _390
REMARK  170  A    between atoms: _395  and  _397
REMARK  171  A    between atoms: _397  and  _398
REMARK  172  A    between atoms: _401  and  _403
REMARK  173  A    between atoms: _403  and  _404
REMARK  174  A    between atoms: _403  and  _406
REMARK  175  A    between atoms: _406  and  _407
REMARK  176  A    between atoms: _417  and  _419
REMARK  177  A    between atoms: _419  and  _420
REMARK  178  A    between atoms: _419  and  _422
REMARK  179  A    between atoms: _422  and  _423
REMARK  180  A    between atoms: _423  and  _424
REMARK  181  A    between atoms: _427  and  _429
REMARK  182  A    between atoms: _429  and  _430
REMARK  183  A    between atoms: _429  and  _432
REMARK  184  A    between atoms: _432  and  _433
REMARK  185  A    between atoms: _435  and  _437
REMARK  186  A    between atoms: _437  and  _438
REMARK  187  A    between atoms: _437  and  _440
REMARK  188  A    between atoms: _440  and  _441
REMARK  189  A    between atoms: _447  and  _449
REMARK  190  A    between atoms: _449  and  _450
REMARK  191  A    between atoms: _449  and  _452
REMARK  192  A    between atoms: _452  and  _453
REMARK  193  A    between atoms: _456  and  _458
REMARK  194  A    between atoms: _458  and  _459
REMARK  195  A    between atoms: _458  and  _461
REMARK  196  A    between atoms: _464  and  _466
REMARK  197  A    between atoms: _466  and  _467
REMARK  198  A    between atoms: _469  and  _471
REMARK  199  A    between atoms: _471  and  _472
REMARK  200  A    between atoms: _471  and  _474
REMARK  201  A    between atoms: _474  and  _475
REMARK  202  A    between atoms: _478  and  _480
REMARK  203  A    between atoms: _480  and  _481
REMARK  204  A    between atoms: _480  and  _483
REMARK  205  A    between atoms: _483  and  _484
REMARK  206  A    between atoms: _484  and  _485
REMARK  207  A    between atoms: _485  and  _486
REMARK  208  A    between atoms: _486  and  _487
REMARK  209  A    between atoms: _491  and  _493
REMARK  210  A    between atoms: _493  and  _494
REMARK  211  A    between atoms: _493  and  _496
REMARK  212  A    between atoms: _499  and  _501
REMARK  213  A    between atoms: _501  and  _502
REMARK  214  A    between atoms: _501  and  _504
REMARK  215  A    between atoms: _504  and  _505
REMARK                            x       y       z     vdW  Elec       q    Type
REMARK                         _______ _______ _______ _____ _____    ______ ____
ROOT
ATOM      1  O   HOH     1       0.253  37.982  24.200  0.00  0.00    +0.000 OA
ENDROOT
TORSDOF 0
REMARK  Name = ../refined-set-2016/3qdd/3qdd_pocket.pdb
REMARK  215 active torsions:
REMARK  status: ('A' for Active; 'I' for Inactive)
REMARK    1  A    between atoms: _1  and  _3
REMARK    2  A    between atoms: _3  and  _4
REMARK    3  A    between atoms: _3  and  _6
REMARK    4  A    between atoms: _6  and  _7
REMARK    5  A    between atoms: _13  and  _15
REMARK    6  A    between atoms: _15  and  _16
REMARK    7  A    between atoms: _15  and  _18
REMARK    8  A    between atoms: _18  and  _19
REMARK    9  A    between atoms: _22  and  _24
REMARK   10  A    between atoms: _24  and  _25
REMARK   11  A    between atoms: _24  and  _27
REMARK   12  A    between atoms: _27  and  _28
REMARK   13  A    between atoms: _28  and  _29
REMARK   14  A    between atoms: _31  and  _33
REMARK   15  A    between atoms: _33  and  _34
REMARK   16  A    between atoms: _33  and  _36
REMARK   17  A    between atoms: _36  and  _37
REMARK   18  A    between atoms: _37  and  _38
REMARK   19  A    between atoms: _41  and  _43
REMARK   20  A    between atoms: _43  and  _44
REMARK   21  A    between atoms: _43  and  _46
REMARK   22  A    between atoms: _46  and  _47
REMARK   23  A    between atoms: _50  and  _52
REMARK   24  A    between atoms: _52  and  _53
REMARK   25  A    between atoms: _52  and  _55
REMARK   26  A    between atoms: _55  and  _56
REMARK   27  A    between atoms: _59  and  _61
REMARK   28  A    between atoms: _61  and  _62
REMARK   29  A    between atoms: _61  and  _64
REMARK   30  A    between atoms: _64  and  _65
REMARK   31  A    between atoms: _67  and  _69
REMARK   32  A    between atoms: _69  and  _70
REMARK   33  A    between atoms: _69  and  _72
REMARK   34  A    between atoms: _72  and  _73
REMARK   35  A    between atoms: _78  and  _80
REMARK   36  A    between atoms: _80  and  _81
REMARK   37  A    between atoms: _80  and  _83
REMARK   38  A    between atoms: _83  and  _84
REMARK   39  A    between atoms: _86  and  _88
REMARK   40  A    between atoms: _88  and  _89
REMARK   41  A    between atoms: _88  and  _91
REMARK   42  A    between atoms: _91  and  _92
REMARK   43  A    between atoms: _94  and  _96
REMARK   44  A    between atoms: _96  and  _97
REMARK   45  A    between atoms: _96  and  _99
REMARK   46  A    between atoms: _99  and  _100
REMARK   47  A    between atoms: _103  and  _105
REMARK   48  A    between atoms: _105  and  _106
REMARK   49  A    between atoms: _109  and  _111
REMARK   50  A    between atoms: _111  and  _112
REMARK   51  A    between atoms: _111  and  _114
REMARK   52  A    between atoms: _114  and  _115
REMARK   53  A    between atoms: _118  and  _120
REMARK   54  A    between atoms: _120  and  _121
REMARK   55  A    between atoms: _120  and  _123
REMARK   56  A    between atoms: _123  and  _124
REMARK   57  A    between atoms: _124  and  _125
REMARK   58  A    between atoms: _125  and  _126
REMARK   59  A    between atoms: _126  and  _127
REMARK   60  A    between atoms: _131  and  _133
REMARK   61  A    between atoms: _133  and  _134
REMARK   62  A    between atoms: _133  and  _136
REMARK   63  A    between atoms: _136  and  _137
REMARK   64  A    between atoms: _140  and  _142
REMARK   65  A    between atoms: _142  and  _143
REMARK   66  A    between atoms: _142  and  _145
REMARK   67  A    between atoms: _145  and  _146
REMARK   68  A    between atoms: _149  and  _151
REMARK   69  A    between atoms: _151  and  _152
REMARK   70  A    between atoms: _151  and  _154
REMARK   71  A    between atoms: _157  and  _159
REMARK   72  A    between atoms: _159  and  _160
REMARK   73  A    between atoms: _159  and  _162
REMARK   74  A    between atoms: _162  and  _163
REMARK   75  A    between atoms: _166  and  _168
REMARK   76  A    between atoms: _168  and  _169
REMARK   77  A    between atoms: _168  and  _171
REMARK   78  A    between atoms: _171  and  _172
REMARK   79  A    between atoms: _175  and  _177
REMARK   80  A    between atoms: _177  and  _178
REMARK   81  A    between atoms: _180  and  _182
REMARK   82  A    between atoms: _182  and  _183
REMARK   83  A    between atoms: _182  and  _185
REMARK   84  A    between atoms: _185  and  _186
REMARK   85  A    between atoms: _189  and  _191
REMARK   86  A    between atoms: _191  and  _192
REMARK   87  A    between atoms: _194  and  _196
REMARK   88  A    between atoms: _196  and  _197
REMARK   89  A    between atoms: _196  and  _199
REMARK   90  A    between atoms: _199  and  _200
REMARK   91  A    between atoms: _200  and  _201
REMARK   92  A    between atoms: _203  and  _205
REMARK   93  A    between atoms: _205  and  _206
REMARK   94  A    between atoms: _205  and  _208
REMARK   95  A    between atoms: _208  and  _209
REMARK   96  A    between atoms: _212  and  _214
REMARK   97  A    between atoms: _214  and  _215
REMARK   98  A    between atoms: _214  and  _217
REMARK   99  A    between atoms: _217  and  _218
REMARK  100  A    between atoms: _221  and  _223
REMARK  101  A    between atoms: _223  and  _224
REMARK  102  A    between atoms: _223  and  _226
REMARK  103  A    between atoms: _226  and  _227
REMARK  104  A    between atoms: _230  and  _232
REMARK  105  A    between atoms: _232  and  _233
REMARK  106  A    between atoms: _232  and  _235
REMARK  107  A    between atoms: _235  and  _236
REMARK  108  A    between atoms: _239  and  _241
REMARK  109  A    between atoms: _241  and  _242
REMARK  110  A    between atoms: _241  and  _244
REMARK  111  A    between atoms: _244  and  _245
REMARK  112  A    between atoms: _250  and  _252
REMARK  113  A    between atoms: _252  and  _253
REMARK  114  A    between atoms: _252  and  _255
REMARK  115  A    between atoms: _255  and  _256
REMARK  116  A    between atoms: _259  and  _261
REMARK  117  A    between atoms: _261  and  _262
REMARK  118  A    between atoms: _264  and  _266
REMARK  119  A    between atoms: _266  and  _267
REMARK  120  A    between atoms: _270  and  _272
REMARK  121  A    between atoms: _272  and  _273
REMARK  122  A    between atoms: _275  and  _277
REMARK  123  A    between atoms: _277  and  _278
REMARK  124  A    between atoms: _277  and  _280
REMARK  125  A    between atoms: _283  and  _285
REMARK  126  A    between atoms: _285  and  _286
REMARK  127  A    between atoms: _288  and  _290
REMARK  128  A    between atoms: _290  and  _291
REMARK  129  A    between atoms: _290  and  _293
REMARK  130  A    between atoms: _293  and  _294
REMARK  131  A    between atoms: _300  and  _302
REMARK  132  A    between atoms: _302  and  _303
REMARK  133  A    between atoms: _302  and  _305
REMARK  134  A    between atoms: _305  and  _306
REMARK  135  A    between atoms: _311  and  _312
REMARK  136  A    between atoms: _314  and  _316
REMARK  137  A    between atoms: _316  and  _317
REMARK  138  A    between atoms: _316  and  _319
REMARK  139  A    between atoms: _319  and  _320
REMARK  140  A    between atoms: _325  and  _326
REMARK  141  A    between atoms: _328  and  _330
REMARK  142  A    between atoms: _330  and  _331
REMARK  143  A    between atoms: _330  and  _333
REMARK  144  A    between atoms: _336  and  _338
REMARK  145  A    between atoms: _338  and  _339
REMARK  146  A    between atoms: _338  and  _341
REMARK  147  A    between atoms: _341  and  _342
REMARK  148  A    between atoms: _345  and  _347
REMARK  149  A    between atoms: _347  and  _348
REMARK  150  A    between atoms: _347  and  _350
REMARK  151  A    between atoms: _353  and  _355
REMARK  152  A    between atoms: _355  and  _356
REMARK  153  A    between atoms: _355  and  _358
REMARK  154  A    between atoms: _358  and  _359
REMARK  155  A    between atoms: _362  and  _364
REMARK  156  A    between atoms: _364  and  _365
REMARK  157  A    between atoms: _364  and  _367
REMARK  158  A    between atoms: _367  and  _368
REMARK  159  A    between atoms: _371  and  _373
REMARK  160  A    between atoms: _373  and  _374
REMARK  161  A    between atoms: _373  and  _376
REMARK  162  A    between atoms: _376  and  _377
REMARK  163  A    between atoms: _377  and  _378
REMARK  164  A    between atoms: _378  and  _379
REMARK  165  A    between atoms: _379  and  _380
REMARK  166  A    between atoms: _384  and  _386
REMARK  167  A    between atoms: _386  and  _387
REMARK  168  A    between atoms: _386  and  _389
REMARK  169  A    between atoms: _389  and  _390
REMARK  170  A    between atoms: _395  and  _397
REMARK  171  A    between atoms: _397  and  _398
REMARK  172  A    between atoms: _401  and  _403
REMARK  173  A    between atoms: _403  and  _404
REMARK  174  A    between atoms: _403  and  _406
REMARK  175  A    between atoms: _406  and  _407
REMARK  176  A    between atoms: _417  and  _419
REMARK  177  A    between atoms: _419  and  _420
REMARK  178  A    between atoms: _419  and  _422
REMARK  179  A    between atoms: _422  and  _423
REMARK  180  A    between atoms: _423  and  _424
REMARK  181  A    between atoms: _427  and  _429
REMARK  182  A    between atoms: _429  and  _430
REMARK  183  A    between atoms: _429  and  _432
REMARK  184  A    between atoms: _432  and  _433
REMARK  185  A    between atoms: _435  and  _437
REMARK  186  A    between atoms: _437  and  _438
REMARK  187  A    between atoms: _437  and  _440
REMARK  188  A    between atoms: _440  and  _441
REMARK  189  A    between atoms: _447  and  _449
REMARK  190  A    between atoms: _449  and  _450
REMARK  191  A    between atoms: _449  and  _452
REMARK  192  A    between atoms: _452  and  _453
REMARK  193  A    between atoms: _456  and  _458
REMARK  194  A    between atoms: _458  and  _459
REMARK  195  A    between atoms: _458  and  _461
REMARK  196  A    between atoms: _464  and  _466
REMARK  197  A    between atoms: _466  and  _467
REMARK  198  A    between atoms: _469  and  _471
REMARK  199  A    between atoms: _471  and  _472
REMARK  200  A    between atoms: _471  and  _474
REMARK  201  A    between atoms: _474  and  _475
REMARK  202  A    between atoms: _478  and  _480
REMARK  203  A    between atoms: _480  and  _481
REMARK  204  A    between atoms: _480  and  _483
REMARK  205  A    between atoms: _483  and  _484
REMARK  206  A    between atoms: _484  and  _485
REMARK  207  A    between atoms: _485  and  _486
REMARK  208  A    between atoms: _486  and  _487
REMARK  209  A    between atoms: _491  and  _493
REMARK  210  A    between atoms: _493  and  _494
REMARK  211  A    between atoms: _493  and  _496
REMARK  212  A    between atoms: _499  and  _501
REMARK  213  A    between atoms: _501  and  _502
REMARK  214  A    between atoms: _501  and  _504
REMARK  215  A    between atoms: _504  and  _505
REMARK                            x       y       z     vdW  Elec       q    Type
REMARK                         _______ _______ _______ _____ _____    ______ ____
ROOT
ATOM      1  O   HOH     1       2.462  32.372  21.044  0.00  0.00    +0.000 OA
ENDROOT
TORSDOF 0
REMARK  Name = ../refined-set-2016/3qdd/3qdd_pocket.pdb
REMARK  215 active torsions:
REMARK  status: ('A' for Active; 'I' for Inactive)
REMARK    1  A    between atoms: _1  and  _3
REMARK    2  A    between atoms: _3  and  _4
REMARK    3  A    between atoms: _3  and  _6
REMARK    4  A    between atoms: _6  and  _7
REMARK    5  A    between atoms: _13  and  _15
REMARK    6  A    between atoms: _15  and  _16
REMARK    7  A    between atoms: _15  and  _18
REMARK    8  A    between atoms: _18  and  _19
REMARK    9  A    between atoms: _22  and  _24
REMARK   10  A    between atoms: _24  and  _25
REMARK   11  A    between atoms: _24  and  _27
REMARK   12  A    between atoms: _27  and  _28
REMARK   13  A    between atoms: _28  and  _29
REMARK   14  A    between atoms: _31  and  _33
REMARK   15  A    between atoms: _33  and  _34
REMARK   16  A    between atoms: _33  and  _36
REMARK   17  A    between atoms: _36  and  _37
REMARK   18  A    between atoms: _37  and  _38
REMARK   19  A    between atoms: _41  and  _43
REMARK   20  A    between atoms: _43  and  _44
REMARK   21  A    between atoms: _43  and  _46
REMARK   22  A    between atoms: _46  and  _47
REMARK   23  A    between atoms: _50  and  _52
REMARK   24  A    between atoms: _52  and  _53
REMARK   25  A    between atoms: _52  and  _55
REMARK   26  A    between atoms: _55  and  _56
REMARK   27  A    between atoms: _59  and  _61
REMARK   28  A    between atoms: _61  and  _62
REMARK   29  A    between atoms: _61  and  _64
REMARK   30  A    between atoms: _64  and  _65
REMARK   31  A    between atoms: _67  and  _69
REMARK   32  A    between atoms: _69  and  _70
REMARK   33  A    between atoms: _69  and  _72
REMARK   34  A    between atoms: _72  and  _73
REMARK   35  A    between atoms: _78  and  _80
REMARK   36  A    between atoms: _80  and  _81
REMARK   37  A    between atoms: _80  and  _83
REMARK   38  A    between atoms: _83  and  _84
REMARK   39  A    between atoms: _86  and  _88
REMARK   40  A    between atoms: _88  and  _89
REMARK   41  A    between atoms: _88  and  _91
REMARK   42  A    between atoms: _91  and  _92
REMARK   43  A    between atoms: _94  and  _96
REMARK   44  A    between atoms: _96  and  _97
REMARK   45  A    between atoms: _96  and  _99
REMARK   46  A    between atoms: _99  and  _100
REMARK   47  A    between atoms: _103  and  _105
REMARK   48  A    between atoms: _105  and  _106
REMARK   49  A    between atoms: _109  and  _111
REMARK   50  A    between atoms: _111  and  _112
REMARK   51  A    between atoms: _111  and  _114
REMARK   52  A    between atoms: _114  and  _115
REMARK   53  A    between atoms: _118  and  _120
REMARK   54  A    between atoms: _120  and  _121
REMARK   55  A    between atoms: _120  and  _123
REMARK   56  A    between atoms: _123  and  _124
REMARK   57  A    between atoms: _124  and  _125
REMARK   58  A    between atoms: _125  and  _126
REMARK   59  A    between atoms: _126  and  _127
REMARK   60  A    between atoms: _131  and  _133
REMARK   61  A    between atoms: _133  and  _134
REMARK   62  A    between atoms: _133  and  _136
REMARK   63  A    between atoms: _136  and  _137
REMARK   64  A    between atoms: _140  and  _142
REMARK   65  A    between atoms: _142  and  _143
REMARK   66  A    between atoms: _142  and  _145
REMARK   67  A    between atoms: _145  and  _146
REMARK   68  A    between atoms: _149  and  _151
REMARK   69  A    between atoms: _151  and  _152
REMARK   70  A    between atoms: _151  and  _154
REMARK   71  A    between atoms: _157  and  _159
REMARK   72  A    between atoms: _159  and  _160
REMARK   73  A    between atoms: _159  and  _162
REMARK   74  A    between atoms: _162  and  _163
REMARK   75  A    between atoms: _166  and  _168
REMARK   76  A    between atoms: _168  and  _169
REMARK   77  A    between atoms: _168  and  _171
REMARK   78  A    between atoms: _171  and  _172
REMARK   79  A    between atoms: _175  and  _177
REMARK   80  A    between atoms: _177  and  _178
REMARK   81  A    between atoms: _180  and  _182
REMARK   82  A    between atoms: _182  and  _183
REMARK   83  A    between atoms: _182  and  _185
REMARK   84  A    between atoms: _185  and  _186
REMARK   85  A    between atoms: _189  and  _191
REMARK   86  A    between atoms: _191  and  _192
REMARK   87  A    between atoms: _194  and  _196
REMARK   88  A    between atoms: _196  and  _197
REMARK   89  A    between atoms: _196  and  _199
REMARK   90  A    between atoms: _199  and  _200
REMARK   91  A    between atoms: _200  and  _201
REMARK   92  A    between atoms: _203  and  _205
REMARK   93  A    between atoms: _205  and  _206
REMARK   94  A    between atoms: _205  and  _208
REMARK   95  A    between atoms: _208  and  _209
REMARK   96  A    between atoms: _212  and  _214
REMARK   97  A    between atoms: _214  and  _215
REMARK   98  A    between atoms: _214  and  _217
REMARK   99  A    between atoms: _217  and  _218
REMARK  100  A    between atoms: _221  and  _223
REMARK  101  A    between atoms: _223  and  _224
REMARK  102  A    between atoms: _223  and  _226
REMARK  103  A    between atoms: _226  and  _227
REMARK  104  A    between atoms: _230  and  _232
REMARK  105  A    between atoms: _232  and  _233
REMARK  106  A    between atoms: _232  and  _235
REMARK  107  A    between atoms: _235  and  _236
REMARK  108  A    between atoms: _239  and  _241
REMARK  109  A    between atoms: _241  and  _242
REMARK  110  A    between atoms: _241  and  _244
REMARK  111  A    between atoms: _244  and  _245
REMARK  112  A    between atoms: _250  and  _252
REMARK  113  A    between atoms: _252  and  _253
REMARK  114  A    between atoms: _252  and  _255
REMARK  115  A    between atoms: _255  and  _256
REMARK  116  A    between atoms: _259  and  _261
REMARK  117  A    between atoms: _261  and  _262
REMARK  118  A    between atoms: _264  and  _266
REMARK  119  A    between atoms: _266  and  _267
REMARK  120  A    between atoms: _270  and  _272
REMARK  121  A    between atoms: _272  and  _273
REMARK  122  A    between atoms: _275  and  _277
REMARK  123  A    between atoms: _277  and  _278
REMARK  124  A    between atoms: _277  and  _280
REMARK  125  A    between atoms: _283  and  _285
REMARK  126  A    between atoms: _285  and  _286
REMARK  127  A    between atoms: _288  and  _290
REMARK  128  A    between atoms: _290  and  _291
REMARK  129  A    between atoms: _290  and  _293
REMARK  130  A    between atoms: _293  and  _294
REMARK  131  A    between atoms: _300  and  _302
REMARK  132  A    between atoms: _302  and  _303
REMARK  133  A    between atoms: _302  and  _305
REMARK  134  A    between atoms: _305  and  _306
REMARK  135  A    between atoms: _311  and  _312
REMARK  136  A    between atoms: _314  and  _316
REMARK  137  A    between atoms: _316  and  _317
REMARK  138  A    between atoms: _316  and  _319
REMARK  139  A    between atoms: _319  and  _320
REMARK  140  A    between atoms: _325  and  _326
REMARK  141  A    between atoms: _328  and  _330
REMARK  142  A    between atoms: _330  and  _331
REMARK  143  A    between atoms: _330  and  _333
REMARK  144  A    between atoms: _336  and  _338
REMARK  145  A    between atoms: _338  and  _339
REMARK  146  A    between atoms: _338  and  _341
REMARK  147  A    between atoms: _341  and  _342
REMARK  148  A    between atoms: _345  and  _347
REMARK  149  A    between atoms: _347  and  _348
REMARK  150  A    between atoms: _347  and  _350
REMARK  151  A    between atoms: _353  and  _355
REMARK  152  A    between atoms: _355  and  _356
REMARK  153  A    between atoms: _355  and  _358
REMARK  154  A    between atoms: _358  and  _359
REMARK  155  A    between atoms: _362  and  _364
REMARK  156  A    between atoms: _364  and  _365
REMARK  157  A    between atoms: _364  and  _367
REMARK  158  A    between atoms: _367  and  _368
REMARK  159  A    between atoms: _371  and  _373
REMARK  160  A    between atoms: _373  and  _374
REMARK  161  A    between atoms: _373  and  _376
REMARK  162  A    between atoms: _376  and  _377
REMARK  163  A    between atoms: _377  and  _378
REMARK  164  A    between atoms: _378  and  _379
REMARK  165  A    between atoms: _379  and  _380
REMARK  166  A    between atoms: _384  and  _386
REMARK  167  A    between atoms: _386  and  _387
REMARK  168  A    between atoms: _386  and  _389
REMARK  169  A    between atoms: _389  and  _390
REMARK  170  A    between atoms: _395  and  _397
REMARK  171  A    between atoms: _397  and  _398
REMARK  172  A    between atoms: _401  and  _403
REMARK  173  A    between atoms: _403  and  _404
REMARK  174  A    between atoms: _403  and  _406
REMARK  175  A    between atoms: _406  and  _407
REMARK  176  A    between atoms: _417  and  _419
REMARK  177  A    between atoms: _419  and  _420
REMARK  178  A    between atoms: _419  and  _422
REMARK  179  A    between atoms: _422  and  _423
REMARK  180  A    between atoms: _423  and  _424
REMARK  181  A    between atoms: _427  and  _429
REMARK  182  A    between atoms: _429  and  _430
REMARK  183  A    between atoms: _429  and  _432
REMARK  184  A    between atoms: _432  and  _433
REMARK  185  A    between atoms: _435  and  _437
REMARK  186  A    between atoms: _437  and  _438
REMARK  187  A    between atoms: _437  and  _440
REMARK  188  A    between atoms: _440  and  _441
REMARK  189  A    between atoms: _447  and  _449
REMARK  190  A    between atoms: _449  and  _450
REMARK  191  A    between atoms: _449  and  _452
REMARK  192  A    between atoms: _452  and  _453
REMARK  193  A    between atoms: _456  and  _458
REMARK  194  A    between atoms: _458  and  _459
REMARK  195  A    between atoms: _458  and  _461
REMARK  196  A    between atoms: _464  and  _466
REMARK  197  A    between atoms: _466  and  _467
REMARK  198  A    between atoms: _469  and  _471
REMARK  199  A    between atoms: _471  and  _472
REMARK  200  A    between atoms: _471  and  _474
REMARK  201  A    between atoms: _474  and  _475
REMARK  202  A    between atoms: _478  and  _480
REMARK  203  A    between atoms: _480  and  _481
REMARK  204  A    between atoms: _480  and  _483
REMARK  205  A    between atoms: _483  and  _484
REMARK  206  A    between atoms: _484  and  _485
REMARK  207  A    between atoms: _485  and  _486
REMARK  208  A    between atoms: _486  and  _487
REMARK  209  A    between atoms: _491  and  _493
REMARK  210  A    between atoms: _493  and  _494
REMARK  211  A    between atoms: _493  and  _496
REMARK  212  A    between atoms: _499  and  _501
REMARK  213  A    between atoms: _501  and  _502
REMARK  214  A    between atoms: _501  and  _504
REMARK  215  A    between atoms: _504  and  _505
REMARK                            x       y       z     vdW  Elec       q    Type
REMARK                         _______ _______ _______ _____ _____    ______ ____
ROOT
ATOM      1  O   HOH     1      -2.042  37.670  22.812  0.00  0.00    +0.000 OA
ENDROOT
TORSDOF 0
REMARK  Name = ../refined-set-2016/3qdd/3qdd_pocket.pdb
REMARK  215 active torsions:
REMARK  status: ('A' for Active; 'I' for Inactive)
REMARK    1  A    between atoms: _1  and  _3
REMARK    2  A    between atoms: _3  and  _4
REMARK    3  A    between atoms: _3  and  _6
REMARK    4  A    between atoms: _6  and  _7
REMARK    5  A    between atoms: _13  and  _15
REMARK    6  A    between atoms: _15  and  _16
REMARK    7  A    between atoms: _15  and  _18
REMARK    8  A    between atoms: _18  and  _19
REMARK    9  A    between atoms: _22  and  _24
REMARK   10  A    between atoms: _24  and  _25
REMARK   11  A    between atoms: _24  and  _27
REMARK   12  A    between atoms: _27  and  _28
REMARK   13  A    between atoms: _28  and  _29
REMARK   14  A    between atoms: _31  and  _33
REMARK   15  A    between atoms: _33  and  _34
REMARK   16  A    between atoms: _33  and  _36
REMARK   17  A    between atoms: _36  and  _37
REMARK   18  A    between atoms: _37  and  _38
REMARK   19  A    between atoms: _41  and  _43
REMARK   20  A    between atoms: _43  and  _44
REMARK   21  A    between atoms: _43  and  _46
REMARK   22  A    between atoms: _46  and  _47
REMARK   23  A    between atoms: _50  and  _52
REMARK   24  A    between atoms: _52  and  _53
REMARK   25  A    between atoms: _52  and  _55
REMARK   26  A    between atoms: _55  and  _56
REMARK   27  A    between atoms: _59  and  _61
REMARK   28  A    between atoms: _61  and  _62
REMARK   29  A    between atoms: _61  and  _64
REMARK   30  A    between atoms: _64  and  _65
REMARK   31  A    between atoms: _67  and  _69
REMARK   32  A    between atoms: _69  and  _70
REMARK   33  A    between atoms: _69  and  _72
REMARK   34  A    between atoms: _72  and  _73
REMARK   35  A    between atoms: _78  and  _80
REMARK   36  A    between atoms: _80  and  _81
REMARK   37  A    between atoms: _80  and  _83
REMARK   38  A    between atoms: _83  and  _84
REMARK   39  A    between atoms: _86  and  _88
REMARK   40  A    between atoms: _88  and  _89
REMARK   41  A    between atoms: _88  and  _91
REMARK   42  A    between atoms: _91  and  _92
REMARK   43  A    between atoms: _94  and  _96
REMARK   44  A    between atoms: _96  and  _97
REMARK   45  A    between atoms: _96  and  _99
REMARK   46  A    between atoms: _99  and  _100
REMARK   47  A    between atoms: _103  and  _105
REMARK   48  A    between atoms: _105  and  _106
REMARK   49  A    between atoms: _109  and  _111
REMARK   50  A    between atoms: _111  and  _112
REMARK   51  A    between atoms: _111  and  _114
REMARK   52  A    between atoms: _114  and  _115
REMARK   53  A    between atoms: _118  and  _120
REMARK   54  A    between atoms: _120  and  _121
REMARK   55  A    between atoms: _120  and  _123
REMARK   56  A    between atoms: _123  and  _124
REMARK   57  A    between atoms: _124  and  _125
REMARK   58  A    between atoms: _125  and  _126
REMARK   59  A    between atoms: _126  and  _127
REMARK   60  A    between atoms: _131  and  _133
REMARK   61  A    between atoms: _133  and  _134
REMARK   62  A    between atoms: _133  and  _136
REMARK   63  A    between atoms: _136  and  _137
REMARK   64  A    between atoms: _140  and  _142
REMARK   65  A    between atoms: _142  and  _143
REMARK   66  A    between atoms: _142  and  _145
REMARK   67  A    between atoms: _145  and  _146
REMARK   68  A    between atoms: _149  and  _151
REMARK   69  A    between atoms: _151  and  _152
REMARK   70  A    between atoms: _151  and  _154
REMARK   71  A    between atoms: _157  and  _159
REMARK   72  A    between atoms: _159  and  _160
REMARK   73  A    between atoms: _159  and  _162
REMARK   74  A    between atoms: _162  and  _163
REMARK   75  A    between atoms: _166  and  _168
REMARK   76  A    between atoms: _168  and  _169
REMARK   77  A    between atoms: _168  and  _171
REMARK   78  A    between atoms: _171  and  _172
REMARK   79  A    between atoms: _175  and  _177
REMARK   80  A    between atoms: _177  and  _178
REMARK   81  A    between atoms: _180  and  _182
REMARK   82  A    between atoms: _182  and  _183
REMARK   83  A    between atoms: _182  and  _185
REMARK   84  A    between atoms: _185  and  _186
REMARK   85  A    between atoms: _189  and  _191
REMARK   86  A    between atoms: _191  and  _192
REMARK   87  A    between atoms: _194  and  _196
REMARK   88  A    between atoms: _196  and  _197
REMARK   89  A    between atoms: _196  and  _199
REMARK   90  A    between atoms: _199  and  _200
REMARK   91  A    between atoms: _200  and  _201
REMARK   92  A    between atoms: _203  and  _205
REMARK   93  A    between atoms: _205  and  _206
REMARK   94  A    between atoms: _205  and  _208
REMARK   95  A    between atoms: _208  and  _209
REMARK   96  A    between atoms: _212  and  _214
REMARK   97  A    between atoms: _214  and  _215
REMARK   98  A    between atoms: _214  and  _217
REMARK   99  A    between atoms: _217  and  _218
REMARK  100  A    between atoms: _221  and  _223
REMARK  101  A    between atoms: _223  and  _224
REMARK  102  A    between atoms: _223  and  _226
REMARK  103  A    between atoms: _226  and  _227
REMARK  104  A    between atoms: _230  and  _232
REMARK  105  A    between atoms: _232  and  _233
REMARK  106  A    between atoms: _232  and  _235
REMARK  107  A    between atoms: _235  and  _236
REMARK  108  A    between atoms: _239  and  _241
REMARK  109  A    between atoms: _241  and  _242
REMARK  110  A    between atoms: _241  and  _244
REMARK  111  A    between atoms: _244  and  _245
REMARK  112  A    between atoms: _250  and  _252
REMARK  113  A    between atoms: _252  and  _253
REMARK  114  A    between atoms: _252  and  _255
REMARK  115  A    between atoms: _255  and  _256
REMARK  116  A    between atoms: _259  and  _261
REMARK  117  A    between atoms: _261  and  _262
REMARK  118  A    between atoms: _264  and  _266
REMARK  119  A    between atoms: _266  and  _267
REMARK  120  A    between atoms: _270  and  _272
REMARK  121  A    between atoms: _272  and  _273
REMARK  122  A    between atoms: _275  and  _277
REMARK  123  A    between atoms: _277  and  _278
REMARK  124  A    between atoms: _277  and  _280
REMARK  125  A    between atoms: _283  and  _285
REMARK  126  A    between atoms: _285  and  _286
REMARK  127  A    between atoms: _288  and  _290
REMARK  128  A    between atoms: _290  and  _291
REMARK  129  A    between atoms: _290  and  _293
REMARK  130  A    between atoms: _293  and  _294
REMARK  131  A    between atoms: _300  and  _302
REMARK  132  A    between atoms: _302  and  _303
REMARK  133  A    between atoms: _302  and  _305
REMARK  134  A    between atoms: _305  and  _306
REMARK  135  A    between atoms: _311  and  _312
REMARK  136  A    between atoms: _314  and  _316
REMARK  137  A    between atoms: _316  and  _317
REMARK  138  A    between atoms: _316  and  _319
REMARK  139  A    between atoms: _319  and  _320
REMARK  140  A    between atoms: _325  and  _326
REMARK  141  A    between atoms: _328  and  _330
REMARK  142  A    between atoms: _330  and  _331
REMARK  143  A    between atoms: _330  and  _333
REMARK  144  A    between atoms: _336  and  _338
REMARK  145  A    between atoms: _338  and  _339
REMARK  146  A    between atoms: _338  and  _341
REMARK  147  A    between atoms: _341  and  _342
REMARK  148  A    between atoms: _345  and  _347
REMARK  149  A    between atoms: _347  and  _348
REMARK  150  A    between atoms: _347  and  _350
REMARK  151  A    between atoms: _353  and  _355
REMARK  152  A    between atoms: _355  and  _356
REMARK  153  A    between atoms: _355  and  _358
REMARK  154  A    between atoms: _358  and  _359
REMARK  155  A    between atoms: _362  and  _364
REMARK  156  A    between atoms: _364  and  _365
REMARK  157  A    between atoms: _364  and  _367
REMARK  158  A    between atoms: _367  and  _368
REMARK  159  A    between atoms: _371  and  _373
REMARK  160  A    between atoms: _373  and  _374
REMARK  161  A    between atoms: _373  and  _376
REMARK  162  A    between atoms: _376  and  _377
REMARK  163  A    between atoms: _377  and  _378
REMARK  164  A    between atoms: _378  and  _379
REMARK  165  A    between atoms: _379  and  _380
REMARK  166  A    between atoms: _384  and  _386
REMARK  167  A    between atoms: _386  and  _387
REMARK  168  A    between atoms: _386  and  _389
REMARK  169  A    between atoms: _389  and  _390
REMARK  170  A    between atoms: _395  and  _397
REMARK  171  A    between atoms: _397  and  _398
REMARK  172  A    between atoms: _401  and  _403
REMARK  173  A    between atoms: _403  and  _404
REMARK  174  A    between atoms: _403  and  _406
REMARK  175  A    between atoms: _406  and  _407
REMARK  176  A    between atoms: _417  and  _419
REMARK  177  A    between atoms: _419  and  _420
REMARK  178  A    between atoms: _419  and  _422
REMARK  179  A    between atoms: _422  and  _423
REMARK  180  A    between atoms: _423  and  _424
REMARK  181  A    between atoms: _427  and  _429
REMARK  182  A    between atoms: _429  and  _430
REMARK  183  A    between atoms: _429  and  _432
REMARK  184  A    between atoms: _432  and  _433
REMARK  185  A    between atoms: _435  and  _437
REMARK  186  A    between atoms: _437  and  _438
REMARK  187  A    between atoms: _437  and  _440
REMARK  188  A    between atoms: _440  and  _441
REMARK  189  A    between atoms: _447  and  _449
REMARK  190  A    between atoms: _449  and  _450
REMARK  191  A    between atoms: _449  and  _452
REMARK  192  A    between atoms: _452  and  _453
REMARK  193  A    between atoms: _456  and  _458
REMARK  194  A    between atoms: _458  and  _459
REMARK  195  A    between atoms: _458  and  _461
REMARK  196  A    between atoms: _464  and  _466
REMARK  197  A    between atoms: _466  and  _467
REMARK  198  A    between atoms: _469  and  _471
REMARK  199  A    between atoms: _471  and  _472
REMARK  200  A    between atoms: _471  and  _474
REMARK  201  A    between atoms: _474  and  _475
REMARK  202  A    between atoms: _478  and  _480
REMARK  203  A    between atoms: _480  and  _481
REMARK  204  A    between atoms: _480  and  _483
REMARK  205  A    between atoms: _483  and  _484
REMARK  206  A    between atoms: _484  and  _485
REMARK  207  A    between atoms: _485  and  _486
REMARK  208  A    between atoms: _486  and  _487
REMARK  209  A    between atoms: _491  and  _493
REMARK  210  A    between atoms: _493  and  _494
REMARK  211  A    between atoms: _493  and  _496
REMARK  212  A    between atoms: _499  and  _501
REMARK  213  A    between atoms: _501  and  _502
REMARK  214  A    between atoms: _501  and  _504
REMARK  215  A    between atoms: _504  and  _505
REMARK                            x       y       z     vdW  Elec       q    Type
REMARK                         _______ _______ _______ _____ _____    ______ ____
ROOT
ATOM      1  O   HOH     1      -4.740  36.130  20.175  0.00  0.00    +0.000 OA
ENDROOT
TORSDOF 0
REMARK  Name = ../refined-set-2016/3qdd/3qdd_pocket.pdb
REMARK  215 active torsions:
REMARK  status: ('A' for Active; 'I' for Inactive)
REMARK    1  A    between atoms: _1  and  _3
REMARK    2  A    between atoms: _3  and  _4
REMARK    3  A    between atoms: _3  and  _6
REMARK    4  A    between atoms: _6  and  _7
REMARK    5  A    between atoms: _13  and  _15
REMARK    6  A    between atoms: _15  and  _16
REMARK    7  A    between atoms: _15  and  _18
REMARK    8  A    between atoms: _18  and  _19
REMARK    9  A    between atoms: _22  and  _24
REMARK   10  A    between atoms: _24  and  _25
REMARK   11  A    between atoms: _24  and  _27
REMARK   12  A    between atoms: _27  and  _28
REMARK   13  A    between atoms: _28  and  _29
REMARK   14  A    between atoms: _31  and  _33
REMARK   15  A    between atoms: _33  and  _34
REMARK   16  A    between atoms: _33  and  _36
REMARK   17  A    between atoms: _36  and  _37
REMARK   18  A    between atoms: _37  and  _38
REMARK   19  A    between atoms: _41  and  _43
REMARK   20  A    between atoms: _43  and  _44
REMARK   21  A    between atoms: _43  and  _46
REMARK   22  A    between atoms: _46  and  _47
REMARK   23  A    between atoms: _50  and  _52
REMARK   24  A    between atoms: _52  and  _53
REMARK   25  A    between atoms: _52  and  _55
REMARK   26  A    between atoms: _55  and  _56
REMARK   27  A    between atoms: _59  and  _61
REMARK   28  A    between atoms: _61  and  _62
REMARK   29  A    between atoms: _61  and  _64
REMARK   30  A    between atoms: _64  and  _65
REMARK   31  A    between atoms: _67  and  _69
REMARK   32  A    between atoms: _69  and  _70
REMARK   33  A    between atoms: _69  and  _72
REMARK   34  A    between atoms: _72  and  _73
REMARK   35  A    between atoms: _78  and  _80
REMARK   36  A    between atoms: _80  and  _81
REMARK   37  A    between atoms: _80  and  _83
REMARK   38  A    between atoms: _83  and  _84
REMARK   39  A    between atoms: _86  and  _88
REMARK   40  A    between atoms: _88  and  _89
REMARK   41  A    between atoms: _88  and  _91
REMARK   42  A    between atoms: _91  and  _92
REMARK   43  A    between atoms: _94  and  _96
REMARK   44  A    between atoms: _96  and  _97
REMARK   45  A    between atoms: _96  and  _99
REMARK   46  A    between atoms: _99  and  _100
REMARK   47  A    between atoms: _103  and  _105
REMARK   48  A    between atoms: _105  and  _106
REMARK   49  A    between atoms: _109  and  _111
REMARK   50  A    between atoms: _111  and  _112
REMARK   51  A    between atoms: _111  and  _114
REMARK   52  A    between atoms: _114  and  _115
REMARK   53  A    between atoms: _118  and  _120
REMARK   54  A    between atoms: _120  and  _121
REMARK   55  A    between atoms: _120  and  _123
REMARK   56  A    between atoms: _123  and  _124
REMARK   57  A    between atoms: _124  and  _125
REMARK   58  A    between atoms: _125  and  _126
REMARK   59  A    between atoms: _126  and  _127
REMARK   60  A    between atoms: _131  and  _133
REMARK   61  A    between atoms: _133  and  _134
REMARK   62  A    between atoms: _133  and  _136
REMARK   63  A    between atoms: _136  and  _137
REMARK   64  A    between atoms: _140  and  _142
REMARK   65  A    between atoms: _142  and  _143
REMARK   66  A    between atoms: _142  and  _145
REMARK   67  A    between atoms: _145  and  _146
REMARK   68  A    between atoms: _149  and  _151
REMARK   69  A    between atoms: _151  and  _152
REMARK   70  A    between atoms: _151  and  _154
REMARK   71  A    between atoms: _157  and  _159
REMARK   72  A    between atoms: _159  and  _160
REMARK   73  A    between atoms: _159  and  _162
REMARK   74  A    between atoms: _162  and  _163
REMARK   75  A    between atoms: _166  and  _168
REMARK   76  A    between atoms: _168  and  _169
REMARK   77  A    between atoms: _168  and  _171
REMARK   78  A    between atoms: _171  and  _172
REMARK   79  A    between atoms: _175  and  _177
REMARK   80  A    between atoms: _177  and  _178
REMARK   81  A    between atoms: _180  and  _182
REMARK   82  A    between atoms: _182  and  _183
REMARK   83  A    between atoms: _182  and  _185
REMARK   84  A    between atoms: _185  and  _186
REMARK   85  A    between atoms: _189  and  _191
REMARK   86  A    between atoms: _191  and  _192
REMARK   87  A    between atoms: _194  and  _196
REMARK   88  A    between atoms: _196  and  _197
REMARK   89  A    between atoms: _196  and  _199
REMARK   90  A    between atoms: _199  and  _200
REMARK   91  A    between atoms: _200  and  _201
REMARK   92  A    between atoms: _203  and  _205
REMARK   93  A    between atoms: _205  and  _206
REMARK   94  A    between atoms: _205  and  _208
REMARK   95  A    between atoms: _208  and  _209
REMARK   96  A    between atoms: _212  and  _214
REMARK   97  A    between atoms: _214  and  _215
REMARK   98  A    between atoms: _214  and  _217
REMARK   99  A    between atoms: _217  and  _218
REMARK  100  A    between atoms: _221  and  _223
REMARK  101  A    between atoms: _223  and  _224
REMARK  102  A    between atoms: _223  and  _226
REMARK  103  A    between atoms: _226  and  _227
REMARK  104  A    between atoms: _230  and  _232
REMARK  105  A    between atoms: _232  and  _233
REMARK  106  A    between atoms: _232  and  _235
REMARK  107  A    between atoms: _235  and  _236
REMARK  108  A    between atoms: _239  and  _241
REMARK  109  A    between atoms: _241  and  _242
REMARK  110  A    between atoms: _241  and  _244
REMARK  111  A    between atoms: _244  and  _245
REMARK  112  A    between atoms: _250  and  _252
REMARK  113  A    between atoms: _252  and  _253
REMARK  114  A    between atoms: _252  and  _255
REMARK  115  A    between atoms: _255  and  _256
REMARK  116  A    between atoms: _259  and  _261
REMARK  117  A    between atoms: _261  and  _262
REMARK  118  A    between atoms: _264  and  _266
REMARK  119  A    between atoms: _266  and  _267
REMARK  120  A    between atoms: _270  and  _272
REMARK  121  A    between atoms: _272  and  _273
REMARK  122  A    between atoms: _275  and  _277
REMARK  123  A    between atoms: _277  and  _278
REMARK  124  A    between atoms: _277  and  _280
REMARK  125  A    between atoms: _283  and  _285
REMARK  126  A    between atoms: _285  and  _286
REMARK  127  A    between atoms: _288  and  _290
REMARK  128  A    between atoms: _290  and  _291
REMARK  129  A    between atoms: _290  and  _293
REMARK  130  A    between atoms: _293  and  _294
REMARK  131  A    between atoms: _300  and  _302
REMARK  132  A    between atoms: _302  and  _303
REMARK  133  A    between atoms: _302  and  _305
REMARK  134  A    between atoms: _305  and  _306
REMARK  135  A    between atoms: _311  and  _312
REMARK  136  A    between atoms: _314  and  _316
REMARK  137  A    between atoms: _316  and  _317
REMARK  138  A    between atoms: _316  and  _319
REMARK  139  A    between atoms: _319  and  _320
REMARK  140  A    between atoms: _325  and  _326
REMARK  141  A    between atoms: _328  and  _330
REMARK  142  A    between atoms: _330  and  _331
REMARK  143  A    between atoms: _330  and  _333
REMARK  144  A    between atoms: _336  and  _338
REMARK  145  A    between atoms: _338  and  _339
REMARK  146  A    between atoms: _338  and  _341
REMARK  147  A    between atoms: _341  and  _342
REMARK  148  A    between atoms: _345  and  _347
REMARK  149  A    between atoms: _347  and  _348
REMARK  150  A    between atoms: _347  and  _350
REMARK  151  A    between atoms: _353  and  _355
REMARK  152  A    between atoms: _355  and  _356
REMARK  153  A    between atoms: _355  and  _358
REMARK  154  A    between atoms: _358  and  _359
REMARK  155  A    between atoms: _362  and  _364
REMARK  156  A    between atoms: _364  and  _365
REMARK  157  A    between atoms: _364  and  _367
REMARK  158  A    between atoms: _367  and  _368
REMARK  159  A    between atoms: _371  and  _373
REMARK  160  A    between atoms: _373  and  _374
REMARK  161  A    between atoms: _373  and  _376
REMARK  162  A    between atoms: _376  and  _377
REMARK  163  A    between atoms: _377  and  _378
REMARK  164  A    between atoms: _378  and  _379
REMARK  165  A    between atoms: _379  and  _380
REMARK  166  A    between atoms: _384  and  _386
REMARK  167  A    between atoms: _386  and  _387
REMARK  168  A    between atoms: _386  and  _389
REMARK  169  A    between atoms: _389  and  _390
REMARK  170  A    between atoms: _395  and  _397
REMARK  171  A    between atoms: _397  and  _398
REMARK  172  A    between atoms: _401  and  _403
REMARK  173  A    between atoms: _403  and  _404
REMARK  174  A    between atoms: _403  and  _406
REMARK  175  A    between atoms: _406  and  _407
REMARK  176  A    between atoms: _417  and  _419
REMARK  177  A    between atoms: _419  and  _420
REMARK  178  A    between atoms: _419  and  _422
REMARK  179  A    between atoms: _422  and  _423
REMARK  180  A    between atoms: _423  and  _424
REMARK  181  A    between atoms: _427  and  _429
REMARK  182  A    between atoms: _429  and  _430
REMARK  183  A    between atoms: _429  and  _432
REMARK  184  A    between atoms: _432  and  _433
REMARK  185  A    between atoms: _435  and  _437
REMARK  186  A    between atoms: _437  and  _438
REMARK  187  A    between atoms: _437  and  _440
REMARK  188  A    between atoms: _440  and  _441
REMARK  189  A    between atoms: _447  and  _449
REMARK  190  A    between atoms: _449  and  _450
REMARK  191  A    between atoms: _449  and  _452
REMARK  192  A    between atoms: _452  and  _453
REMARK  193  A    between atoms: _456  and  _458
REMARK  194  A    between atoms: _458  and  _459
REMARK  195  A    between atoms: _458  and  _461
REMARK  196  A    between atoms: _464  and  _466
REMARK  197  A    between atoms: _466  and  _467
REMARK  198  A    between atoms: _469  and  _471
REMARK  199  A    between atoms: _471  and  _472
REMARK  200  A    between atoms: _471  and  _474
REMARK  201  A    between atoms: _474  and  _475
REMARK  202  A    between atoms: _478  and  _480
REMARK  203  A    between atoms: _480  and  _481
REMARK  204  A    between atoms: _480  and  _483
REMARK  205  A    between atoms: _483  and  _484
REMARK  206  A    between atoms: _484  and  _485
REMARK  207  A    between atoms: _485  and  _486
REMARK  208  A    between atoms: _486  and  _487
REMARK  209  A    between atoms: _491  and  _493
REMARK  210  A    between atoms: _493  and  _494
REMARK  211  A    between atoms: _493  and  _496
REMARK  212  A    between atoms: _499  and  _501
REMARK  213  A    between atoms: _501  and  _502
REMARK  214  A    between atoms: _501  and  _504
REMARK  215  A    between atoms: _504  and  _505
REMARK                            x       y       z     vdW  Elec       q    Type
REMARK                         _______ _______ _______ _____ _____    ______ ____
ROOT
ATOM      1  O   HOH     1      -2.215  37.517  16.918  0.00  0.00    +0.000 OA
ENDROOT
TORSDOF 0
REMARK  Name = ../refined-set-2016/3qdd/3qdd_pocket.pdb
REMARK  215 active torsions:
REMARK  status: ('A' for Active; 'I' for Inactive)
REMARK    1  A    between atoms: _1  and  _3
REMARK    2  A    between atoms: _3  and  _4
REMARK    3  A    between atoms: _3  and  _6
REMARK    4  A    between atoms: _6  and  _7
REMARK    5  A    between atoms: _13  and  _15
REMARK    6  A    between atoms: _15  and  _16
REMARK    7  A    between atoms: _15  and  _18
REMARK    8  A    between atoms: _18  and  _19
REMARK    9  A    between atoms: _22  and  _24
REMARK   10  A    between atoms: _24  and  _25
REMARK   11  A    between atoms: _24  and  _27
REMARK   12  A    between atoms: _27  and  _28
REMARK   13  A    between atoms: _28  and  _29
REMARK   14  A    between atoms: _31  and  _33
REMARK   15  A    between atoms: _33  and  _34
REMARK   16  A    between atoms: _33  and  _36
REMARK   17  A    between atoms: _36  and  _37
REMARK   18  A    between atoms: _37  and  _38
REMARK   19  A    between atoms: _41  and  _43
REMARK   20  A    between atoms: _43  and  _44
REMARK   21  A    between atoms: _43  and  _46
REMARK   22  A    between atoms: _46  and  _47
REMARK   23  A    between atoms: _50  and  _52
REMARK   24  A    between atoms: _52  and  _53
REMARK   25  A    between atoms: _52  and  _55
REMARK   26  A    between atoms: _55  and  _56
REMARK   27  A    between atoms: _59  and  _61
REMARK   28  A    between atoms: _61  and  _62
REMARK   29  A    between atoms: _61  and  _64
REMARK   30  A    between atoms: _64  and  _65
REMARK   31  A    between atoms: _67  and  _69
REMARK   32  A    between atoms: _69  and  _70
REMARK   33  A    between atoms: _69  and  _72
REMARK   34  A    between atoms: _72  and  _73
REMARK   35  A    between atoms: _78  and  _80
REMARK   36  A    between atoms: _80  and  _81
REMARK   37  A    between atoms: _80  and  _83
REMARK   38  A    between atoms: _83  and  _84
REMARK   39  A    between atoms: _86  and  _88
REMARK   40  A    between atoms: _88  and  _89
REMARK   41  A    between atoms: _88  and  _91
REMARK   42  A    between atoms: _91  and  _92
REMARK   43  A    between atoms: _94  and  _96
REMARK   44  A    between atoms: _96  and  _97
REMARK   45  A    between atoms: _96  and  _99
REMARK   46  A    between atoms: _99  and  _100
REMARK   47  A    between atoms: _103  and  _105
REMARK   48  A    between atoms: _105  and  _106
REMARK   49  A    between atoms: _109  and  _111
REMARK   50  A    between atoms: _111  and  _112
REMARK   51  A    between atoms: _111  and  _114
REMARK   52  A    between atoms: _114  and  _115
REMARK   53  A    between atoms: _118  and  _120
REMARK   54  A    between atoms: _120  and  _121
REMARK   55  A    between atoms: _120  and  _123
REMARK   56  A    between atoms: _123  and  _124
REMARK   57  A    between atoms: _124  and  _125
REMARK   58  A    between atoms: _125  and  _126
REMARK   59  A    between atoms: _126  and  _127
REMARK   60  A    between atoms: _131  and  _133
REMARK   61  A    between atoms: _133  and  _134
REMARK   62  A    between atoms: _133  and  _136
REMARK   63  A    between atoms: _136  and  _137
REMARK   64  A    between atoms: _140  and  _142
REMARK   65  A    between atoms: _142  and  _143
REMARK   66  A    between atoms: _142  and  _145
REMARK   67  A    between atoms: _145  and  _146
REMARK   68  A    between atoms: _149  and  _151
REMARK   69  A    between atoms: _151  and  _152
REMARK   70  A    between atoms: _151  and  _154
REMARK   71  A    between atoms: _157  and  _159
REMARK   72  A    between atoms: _159  and  _160
REMARK   73  A    between atoms: _159  and  _162
REMARK   74  A    between atoms: _162  and  _163
REMARK   75  A    between atoms: _166  and  _168
REMARK   76  A    between atoms: _168  and  _169
REMARK   77  A    between atoms: _168  and  _171
REMARK   78  A    between atoms: _171  and  _172
REMARK   79  A    between atoms: _175  and  _177
REMARK   80  A    between atoms: _177  and  _178
REMARK   81  A    between atoms: _180  and  _182
REMARK   82  A    between atoms: _182  and  _183
REMARK   83  A    between atoms: _182  and  _185
REMARK   84  A    between atoms: _185  and  _186
REMARK   85  A    between atoms: _189  and  _191
REMARK   86  A    between atoms: _191  and  _192
REMARK   87  A    between atoms: _194  and  _196
REMARK   88  A    between atoms: _196  and  _197
REMARK   89  A    between atoms: _196  and  _199
REMARK   90  A    between atoms: _199  and  _200
REMARK   91  A    between atoms: _200  and  _201
REMARK   92  A    between atoms: _203  and  _205
REMARK   93  A    between atoms: _205  and  _206
REMARK   94  A    between atoms: _205  and  _208
REMARK   95  A    between atoms: _208  and  _209
REMARK   96  A    between atoms: _212  and  _214
REMARK   97  A    between atoms: _214  and  _215
REMARK   98  A    between atoms: _214  and  _217
REMARK   99  A    between atoms: _217  and  _218
REMARK  100  A    between atoms: _221  and  _223
REMARK  101  A    between atoms: _223  and  _224
REMARK  102  A    between atoms: _223  and  _226
REMARK  103  A    between atoms: _226  and  _227
REMARK  104  A    between atoms: _230  and  _232
REMARK  105  A    between atoms: _232  and  _233
REMARK  106  A    between atoms: _232  and  _235
REMARK  107  A    between atoms: _235  and  _236
REMARK  108  A    between atoms: _239  and  _241
REMARK  109  A    between atoms: _241  and  _242
REMARK  110  A    between atoms: _241  and  _244
REMARK  111  A    between atoms: _244  and  _245
REMARK  112  A    between atoms: _250  and  _252
REMARK  113  A    between atoms: _252  and  _253
REMARK  114  A    between atoms: _252  and  _255
REMARK  115  A    between atoms: _255  and  _256
REMARK  116  A    between atoms: _259  and  _261
REMARK  117  A    between atoms: _261  and  _262
REMARK  118  A    between atoms: _264  and  _266
REMARK  119  A    between atoms: _266  and  _267
REMARK  120  A    between atoms: _270  and  _272
REMARK  121  A    between atoms: _272  and  _273
REMARK  122  A    between atoms: _275  and  _277
REMARK  123  A    between atoms: _277  and  _278
REMARK  124  A    between atoms: _277  and  _280
REMARK  125  A    between atoms: _283  and  _285
REMARK  126  A    between atoms: _285  and  _286
REMARK  127  A    between atoms: _288  and  _290
REMARK  128  A    between atoms: _290  and  _291
REMARK  129  A    between atoms: _290  and  _293
REMARK  130  A    between atoms: _293  and  _294
REMARK  131  A    between atoms: _300  and  _302
REMARK  132  A    between atoms: _302  and  _303
REMARK  133  A    between atoms: _302  and  _305
REMARK  134  A    between atoms: _305  and  _306
REMARK  135  A    between atoms: _311  and  _312
REMARK  136  A    between atoms: _314  and  _316
REMARK  137  A    between atoms: _316  and  _317
REMARK  138  A    between atoms: _316  and  _319
REMARK  139  A    between atoms: _319  and  _320
REMARK  140  A    between atoms: _325  and  _326
REMARK  141  A    between atoms: _328  and  _330
REMARK  142  A    between atoms: _330  and  _331
REMARK  143  A    between atoms: _330  and  _333
REMARK  144  A    between atoms: _336  and  _338
REMARK  145  A    between atoms: _338  and  _339
REMARK  146  A    between atoms: _338  and  _341
REMARK  147  A    between atoms: _341  and  _342
REMARK  148  A    between atoms: _345  and  _347
REMARK  149  A    between atoms: _347  and  _348
REMARK  150  A    between atoms: _347  and  _350
REMARK  151  A    between atoms: _353  and  _355
REMARK  152  A    between atoms: _355  and  _356
REMARK  153  A    between atoms: _355  and  _358
REMARK  154  A    between atoms: _358  and  _359
REMARK  155  A    between atoms: _362  and  _364
REMARK  156  A    between atoms: _364  and  _365
REMARK  157  A    between atoms: _364  and  _367
REMARK  158  A    between atoms: _367  and  _368
REMARK  159  A    between atoms: _371  and  _373
REMARK  160  A    between atoms: _373  and  _374
REMARK  161  A    between atoms: _373  and  _376
REMARK  162  A    between atoms: _376  and  _377
REMARK  163  A    between atoms: _377  and  _378
REMARK  164  A    between atoms: _378  and  _379
REMARK  165  A    between atoms: _379  and  _380
REMARK  166  A    between atoms: _384  and  _386
REMARK  167  A    between atoms: _386  and  _387
REMARK  168  A    between atoms: _386  and  _389
REMARK  169  A    between atoms: _389  and  _390
REMARK  170  A    between atoms: _395  and  _397
REMARK  171  A    between atoms: _397  and  _398
REMARK  172  A    between atoms: _401  and  _403
REMARK  173  A    between atoms: _403  and  _404
REMARK  174  A    between atoms: _403  and  _406
REMARK  175  A    between atoms: _406  and  _407
REMARK  176  A    between atoms: _417  and  _419
REMARK  177  A    between atoms: _419  and  _420
REMARK  178  A    between atoms: _419  and  _422
REMARK  179  A    between atoms: _422  and  _423
REMARK  180  A    between atoms: _423  and  _424
REMARK  181  A    between atoms: _427  and  _429
REMARK  182  A    between atoms: _429  and  _430
REMARK  183  A    between atoms: _429  and  _432
REMARK  184  A    between atoms: _432  and  _433
REMARK  185  A    between atoms: _435  and  _437
REMARK  186  A    between atoms: _437  and  _438
REMARK  187  A    between atoms: _437  and  _440
REMARK  188  A    between atoms: _440  and  _441
REMARK  189  A    between atoms: _447  and  _449
REMARK  190  A    between atoms: _449  and  _450
REMARK  191  A    between atoms: _449  and  _452
REMARK  192  A    between atoms: _452  and  _453
REMARK  193  A    between atoms: _456  and  _458
REMARK  194  A    between atoms: _458  and  _459
REMARK  195  A    between atoms: _458  and  _461
REMARK  196  A    between atoms: _464  and  _466
REMARK  197  A    between atoms: _466  and  _467
REMARK  198  A    between atoms: _469  and  _471
REMARK  199  A    between atoms: _471  and  _472
REMARK  200  A    between atoms: _471  and  _474
REMARK  201  A    between atoms: _474  and  _475
REMARK  202  A    between atoms: _478  and  _480
REMARK  203  A    between atoms: _480  and  _481
REMARK  204  A    between atoms: _480  and  _483
REMARK  205  A    between atoms: _483  and  _484
REMARK  206  A    between atoms: _484  and  _485
REMARK  207  A    between atoms: _485  and  _486
REMARK  208  A    between atoms: _486  and  _487
REMARK  209  A    between atoms: _491  and  _493
REMARK  210  A    between atoms: _493  and  _494
REMARK  211  A    between atoms: _493  and  _496
REMARK  212  A    between atoms: _499  and  _501
REMARK  213  A    between atoms: _501  and  _502
REMARK  214  A    between atoms: _501  and  _504
REMARK  215  A    between atoms: _504  and  _505
REMARK                            x       y       z     vdW  Elec       q    Type
REMARK                         _______ _______ _______ _____ _____    ______ ____
ROOT
ATOM      1  O   HOH     1     -11.080  30.991  25.147  0.00  0.00    +0.000 OA
ENDROOT
TORSDOF 0
REMARK  Name = ../refined-set-2016/3qdd/3qdd_pocket.pdb
REMARK  215 active torsions:
REMARK  status: ('A' for Active; 'I' for Inactive)
REMARK    1  A    between atoms: _1  and  _3
REMARK    2  A    between atoms: _3  and  _4
REMARK    3  A    between atoms: _3  and  _6
REMARK    4  A    between atoms: _6  and  _7
REMARK    5  A    between atoms: _13  and  _15
REMARK    6  A    between atoms: _15  and  _16
REMARK    7  A    between atoms: _15  and  _18
REMARK    8  A    between atoms: _18  and  _19
REMARK    9  A    between atoms: _22  and  _24
REMARK   10  A    between atoms: _24  and  _25
REMARK   11  A    between atoms: _24  and  _27
REMARK   12  A    between atoms: _27  and  _28
REMARK   13  A    between atoms: _28  and  _29
REMARK   14  A    between atoms: _31  and  _33
REMARK   15  A    between atoms: _33  and  _34
REMARK   16  A    between atoms: _33  and  _36
REMARK   17  A    between atoms: _36  and  _37
REMARK   18  A    between atoms: _37  and  _38
REMARK   19  A    between atoms: _41  and  _43
REMARK   20  A    between atoms: _43  and  _44
REMARK   21  A    between atoms: _43  and  _46
REMARK   22  A    between atoms: _46  and  _47
REMARK   23  A    between atoms: _50  and  _52
REMARK   24  A    between atoms: _52  and  _53
REMARK   25  A    between atoms: _52  and  _55
REMARK   26  A    between atoms: _55  and  _56
REMARK   27  A    between atoms: _59  and  _61
REMARK   28  A    between atoms: _61  and  _62
REMARK   29  A    between atoms: _61  and  _64
REMARK   30  A    between atoms: _64  and  _65
REMARK   31  A    between atoms: _67  and  _69
REMARK   32  A    between atoms: _69  and  _70
REMARK   33  A    between atoms: _69  and  _72
REMARK   34  A    between atoms: _72  and  _73
REMARK   35  A    between atoms: _78  and  _80
REMARK   36  A    between atoms: _80  and  _81
REMARK   37  A    between atoms: _80  and  _83
REMARK   38  A    between atoms: _83  and  _84
REMARK   39  A    between atoms: _86  and  _88
REMARK   40  A    between atoms: _88  and  _89
REMARK   41  A    between atoms: _88  and  _91
REMARK   42  A    between atoms: _91  and  _92
REMARK   43  A    between atoms: _94  and  _96
REMARK   44  A    between atoms: _96  and  _97
REMARK   45  A    between atoms: _96  and  _99
REMARK   46  A    between atoms: _99  and  _100
REMARK   47  A    between atoms: _103  and  _105
REMARK   48  A    between atoms: _105  and  _106
REMARK   49  A    between atoms: _109  and  _111
REMARK   50  A    between atoms: _111  and  _112
REMARK   51  A    between atoms: _111  and  _114
REMARK   52  A    between atoms: _114  and  _115
REMARK   53  A    between atoms: _118  and  _120
REMARK   54  A    between atoms: _120  and  _121
REMARK   55  A    between atoms: _120  and  _123
REMARK   56  A    between atoms: _123  and  _124
REMARK   57  A    between atoms: _124  and  _125
REMARK   58  A    between atoms: _125  and  _126
REMARK   59  A    between atoms: _126  and  _127
REMARK   60  A    between atoms: _131  and  _133
REMARK   61  A    between atoms: _133  and  _134
REMARK   62  A    between atoms: _133  and  _136
REMARK   63  A    between atoms: _136  and  _137
REMARK   64  A    between atoms: _140  and  _142
REMARK   65  A    between atoms: _142  and  _143
REMARK   66  A    between atoms: _142  and  _145
REMARK   67  A    between atoms: _145  and  _146
REMARK   68  A    between atoms: _149  and  _151
REMARK   69  A    between atoms: _151  and  _152
REMARK   70  A    between atoms: _151  and  _154
REMARK   71  A    between atoms: _157  and  _159
REMARK   72  A    between atoms: _159  and  _160
REMARK   73  A    between atoms: _159  and  _162
REMARK   74  A    between atoms: _162  and  _163
REMARK   75  A    between atoms: _166  and  _168
REMARK   76  A    between atoms: _168  and  _169
REMARK   77  A    between atoms: _168  and  _171
REMARK   78  A    between atoms: _171  and  _172
REMARK   79  A    between atoms: _175  and  _177
REMARK   80  A    between atoms: _177  and  _178
REMARK   81  A    between atoms: _180  and  _182
REMARK   82  A    between atoms: _182  and  _183
REMARK   83  A    between atoms: _182  and  _185
REMARK   84  A    between atoms: _185  and  _186
REMARK   85  A    between atoms: _189  and  _191
REMARK   86  A    between atoms: _191  and  _192
REMARK   87  A    between atoms: _194  and  _196
REMARK   88  A    between atoms: _196  and  _197
REMARK   89  A    between atoms: _196  and  _199
REMARK   90  A    between atoms: _199  and  _200
REMARK   91  A    between atoms: _200  and  _201
REMARK   92  A    between atoms: _203  and  _205
REMARK   93  A    between atoms: _205  and  _206
REMARK   94  A    between atoms: _205  and  _208
REMARK   95  A    between atoms: _208  and  _209
REMARK   96  A    between atoms: _212  and  _214
REMARK   97  A    between atoms: _214  and  _215
REMARK   98  A    between atoms: _214  and  _217
REMARK   99  A    between atoms: _217  and  _218
REMARK  100  A    between atoms: _221  and  _223
REMARK  101  A    between atoms: _223  and  _224
REMARK  102  A    between atoms: _223  and  _226
REMARK  103  A    between atoms: _226  and  _227
REMARK  104  A    between atoms: _230  and  _232
REMARK  105  A    between atoms: _232  and  _233
REMARK  106  A    between atoms: _232  and  _235
REMARK  107  A    between atoms: _235  and  _236
REMARK  108  A    between atoms: _239  and  _241
REMARK  109  A    between atoms: _241  and  _242
REMARK  110  A    between atoms: _241  and  _244
REMARK  111  A    between atoms: _244  and  _245
REMARK  112  A    between atoms: _250  and  _252
REMARK  113  A    between atoms: _252  and  _253
REMARK  114  A    between atoms: _252  and  _255
REMARK  115  A    between atoms: _255  and  _256
REMARK  116  A    between atoms: _259  and  _261
REMARK  117  A    between atoms: _261  and  _262
REMARK  118  A    between atoms: _264  and  _266
REMARK  119  A    between atoms: _266  and  _267
REMARK  120  A    between atoms: _270  and  _272
REMARK  121  A    between atoms: _272  and  _273
REMARK  122  A    between atoms: _275  and  _277
REMARK  123  A    between atoms: _277  and  _278
REMARK  124  A    between atoms: _277  and  _280
REMARK  125  A    between atoms: _283  and  _285
REMARK  126  A    between atoms: _285  and  _286
REMARK  127  A    between atoms: _288  and  _290
REMARK  128  A    between atoms: _290  and  _291
REMARK  129  A    between atoms: _290  and  _293
REMARK  130  A    between atoms: _293  and  _294
REMARK  131  A    between atoms: _300  and  _302
REMARK  132  A    between atoms: _302  and  _303
REMARK  133  A    between atoms: _302  and  _305
REMARK  134  A    between atoms: _305  and  _306
REMARK  135  A    between atoms: _311  and  _312
REMARK  136  A    between atoms: _314  and  _316
REMARK  137  A    between atoms: _316  and  _317
REMARK  138  A    between atoms: _316  and  _319
REMARK  139  A    between atoms: _319  and  _320
REMARK  140  A    between atoms: _325  and  _326
REMARK  141  A    between atoms: _328  and  _330
REMARK  142  A    between atoms: _330  and  _331
REMARK  143  A    between atoms: _330  and  _333
REMARK  144  A    between atoms: _336  and  _338
REMARK  145  A    between atoms: _338  and  _339
REMARK  146  A    between atoms: _338  and  _341
REMARK  147  A    between atoms: _341  and  _342
REMARK  148  A    between atoms: _345  and  _347
REMARK  149  A    between atoms: _347  and  _348
REMARK  150  A    between atoms: _347  and  _350
REMARK  151  A    between atoms: _353  and  _355
REMARK  152  A    between atoms: _355  and  _356
REMARK  153  A    between atoms: _355  and  _358
REMARK  154  A    between atoms: _358  and  _359
REMARK  155  A    between atoms: _362  and  _364
REMARK  156  A    between atoms: _364  and  _365
REMARK  157  A    between atoms: _364  and  _367
REMARK  158  A    between atoms: _367  and  _368
REMARK  159  A    between atoms: _371  and  _373
REMARK  160  A    between atoms: _373  and  _374
REMARK  161  A    between atoms: _373  and  _376
REMARK  162  A    between atoms: _376  and  _377
REMARK  163  A    between atoms: _377  and  _378
REMARK  164  A    between atoms: _378  and  _379
REMARK  165  A    between atoms: _379  and  _380
REMARK  166  A    between atoms: _384  and  _386
REMARK  167  A    between atoms: _386  and  _387
REMARK  168  A    between atoms: _386  and  _389
REMARK  169  A    between atoms: _389  and  _390
REMARK  170  A    between atoms: _395  and  _397
REMARK  171  A    between atoms: _397  and  _398
REMARK  172  A    between atoms: _401  and  _403
REMARK  173  A    between atoms: _403  and  _404
REMARK  174  A    between atoms: _403  and  _406
REMARK  175  A    between atoms: _406  and  _407
REMARK  176  A    between atoms: _417  and  _419
REMARK  177  A    between atoms: _419  and  _420
REMARK  178  A    between atoms: _419  and  _422
REMARK  179  A    between atoms: _422  and  _423
REMARK  180  A    between atoms: _423  and  _424
REMARK  181  A    between atoms: _427  and  _429
REMARK  182  A    between atoms: _429  and  _430
REMARK  183  A    between atoms: _429  and  _432
REMARK  184  A    between atoms: _432  and  _433
REMARK  185  A    between atoms: _435  and  _437
REMARK  186  A    between atoms: _437  and  _438
REMARK  187  A    between atoms: _437  and  _440
REMARK  188  A    between atoms: _440  and  _441
REMARK  189  A    between atoms: _447  and  _449
REMARK  190  A    between atoms: _449  and  _450
REMARK  191  A    between atoms: _449  and  _452
REMARK  192  A    between atoms: _452  and  _453
REMARK  193  A    between atoms: _456  and  _458
REMARK  194  A    between atoms: _458  and  _459
REMARK  195  A    between atoms: _458  and  _461
REMARK  196  A    between atoms: _464  and  _466
REMARK  197  A    between atoms: _466  and  _467
REMARK  198  A    between atoms: _469  and  _471
REMARK  199  A    between atoms: _471  and  _472
REMARK  200  A    between atoms: _471  and  _474
REMARK  201  A    between atoms: _474  and  _475
REMARK  202  A    between atoms: _478  and  _480
REMARK  203  A    between atoms: _480  and  _481
REMARK  204  A    between atoms: _480  and  _483
REMARK  205  A    between atoms: _483  and  _484
REMARK  206  A    between atoms: _484  and  _485
REMARK  207  A    between atoms: _485  and  _486
REMARK  208  A    between atoms: _486  and  _487
REMARK  209  A    between atoms: _491  and  _493
REMARK  210  A    between atoms: _493  and  _494
REMARK  211  A    between atoms: _493  and  _496
REMARK  212  A    between atoms: _499  and  _501
REMARK  213  A    between atoms: _501  and  _502
REMARK  214  A    between atoms: _501  and  _504
REMARK  215  A    between atoms: _504  and  _505
REMARK                            x       y       z     vdW  Elec       q    Type
REMARK                         _______ _______ _______ _____ _____    ______ ____
ROOT
ATOM      1  O   HOH     1     -14.136  31.160  26.151  0.00  0.00    +0.000 OA
ENDROOT
TORSDOF 0
REMARK  Name = ../refined-set-2016/3qdd/3qdd_pocket.pdb
REMARK  215 active torsions:
REMARK  status: ('A' for Active; 'I' for Inactive)
REMARK    1  A    between atoms: _1  and  _3
REMARK    2  A    between atoms: _3  and  _4
REMARK    3  A    between atoms: _3  and  _6
REMARK    4  A    between atoms: _6  and  _7
REMARK    5  A    between atoms: _13  and  _15
REMARK    6  A    between atoms: _15  and  _16
REMARK    7  A    between atoms: _15  and  _18
REMARK    8  A    between atoms: _18  and  _19
REMARK    9  A    between atoms: _22  and  _24
REMARK   10  A    between atoms: _24  and  _25
REMARK   11  A    between atoms: _24  and  _27
REMARK   12  A    between atoms: _27  and  _28
REMARK   13  A    between atoms: _28  and  _29
REMARK   14  A    between atoms: _31  and  _33
REMARK   15  A    between atoms: _33  and  _34
REMARK   16  A    between atoms: _33  and  _36
REMARK   17  A    between atoms: _36  and  _37
REMARK   18  A    between atoms: _37  and  _38
REMARK   19  A    between atoms: _41  and  _43
REMARK   20  A    between atoms: _43  and  _44
REMARK   21  A    between atoms: _43  and  _46
REMARK   22  A    between atoms: _46  and  _47
REMARK   23  A    between atoms: _50  and  _52
REMARK   24  A    between atoms: _52  and  _53
REMARK   25  A    between atoms: _52  and  _55
REMARK   26  A    between atoms: _55  and  _56
REMARK   27  A    between atoms: _59  and  _61
REMARK   28  A    between atoms: _61  and  _62
REMARK   29  A    between atoms: _61  and  _64
REMARK   30  A    between atoms: _64  and  _65
REMARK   31  A    between atoms: _67  and  _69
REMARK   32  A    between atoms: _69  and  _70
REMARK   33  A    between atoms: _69  and  _72
REMARK   34  A    between atoms: _72  and  _73
REMARK   35  A    between atoms: _78  and  _80
REMARK   36  A    between atoms: _80  and  _81
REMARK   37  A    between atoms: _80  and  _83
REMARK   38  A    between atoms: _83  and  _84
REMARK   39  A    between atoms: _86  and  _88
REMARK   40  A    between atoms: _88  and  _89
REMARK   41  A    between atoms: _88  and  _91
REMARK   42  A    between atoms: _91  and  _92
REMARK   43  A    between atoms: _94  and  _96
REMARK   44  A    between atoms: _96  and  _97
REMARK   45  A    between atoms: _96  and  _99
REMARK   46  A    between atoms: _99  and  _100
REMARK   47  A    between atoms: _103  and  _105
REMARK   48  A    between atoms: _105  and  _106
REMARK   49  A    between atoms: _109  and  _111
REMARK   50  A    between atoms: _111  and  _112
REMARK   51  A    between atoms: _111  and  _114
REMARK   52  A    between atoms: _114  and  _115
REMARK   53  A    between atoms: _118  and  _120
REMARK   54  A    between atoms: _120  and  _121
REMARK   55  A    between atoms: _120  and  _123
REMARK   56  A    between atoms: _123  and  _124
REMARK   57  A    between atoms: _124  and  _125
REMARK   58  A    between atoms: _125  and  _126
REMARK   59  A    between atoms: _126  and  _127
REMARK   60  A    between atoms: _131  and  _133
REMARK   61  A    between atoms: _133  and  _134
REMARK   62  A    between atoms: _133  and  _136
REMARK   63  A    between atoms: _136  and  _137
REMARK   64  A    between atoms: _140  and  _142
REMARK   65  A    between atoms: _142  and  _143
REMARK   66  A    between atoms: _142  and  _145
REMARK   67  A    between atoms: _145  and  _146
REMARK   68  A    between atoms: _149  and  _151
REMARK   69  A    between atoms: _151  and  _152
REMARK   70  A    between atoms: _151  and  _154
REMARK   71  A    between atoms: _157  and  _159
REMARK   72  A    between atoms: _159  and  _160
REMARK   73  A    between atoms: _159  and  _162
REMARK   74  A    between atoms: _162  and  _163
REMARK   75  A    between atoms: _166  and  _168
REMARK   76  A    between atoms: _168  and  _169
REMARK   77  A    between atoms: _168  and  _171
REMARK   78  A    between atoms: _171  and  _172
REMARK   79  A    between atoms: _175  and  _177
REMARK   80  A    between atoms: _177  and  _178
REMARK   81  A    between atoms: _180  and  _182
REMARK   82  A    between atoms: _182  and  _183
REMARK   83  A    between atoms: _182  and  _185
REMARK   84  A    between atoms: _185  and  _186
REMARK   85  A    between atoms: _189  and  _191
REMARK   86  A    between atoms: _191  and  _192
REMARK   87  A    between atoms: _194  and  _196
REMARK   88  A    between atoms: _196  and  _197
REMARK   89  A    between atoms: _196  and  _199
REMARK   90  A    between atoms: _199  and  _200
REMARK   91  A    between atoms: _200  and  _201
REMARK   92  A    between atoms: _203  and  _205
REMARK   93  A    between atoms: _205  and  _206
REMARK   94  A    between atoms: _205  and  _208
REMARK   95  A    between atoms: _208  and  _209
REMARK   96  A    between atoms: _212  and  _214
REMARK   97  A    between atoms: _214  and  _215
REMARK   98  A    between atoms: _214  and  _217
REMARK   99  A    between atoms: _217  and  _218
REMARK  100  A    between atoms: _221  and  _223
REMARK  101  A    between atoms: _223  and  _224
REMARK  102  A    between atoms: _223  and  _226
REMARK  103  A    between atoms: _226  and  _227
REMARK  104  A    between atoms: _230  and  _232
REMARK  105  A    between atoms: _232  and  _233
REMARK  106  A    between atoms: _232  and  _235
REMARK  107  A    between atoms: _235  and  _236
REMARK  108  A    between atoms: _239  and  _241
REMARK  109  A    between atoms: _241  and  _242
REMARK  110  A    between atoms: _241  and  _244
REMARK  111  A    between atoms: _244  and  _245
REMARK  112  A    between atoms: _250  and  _252
REMARK  113  A    between atoms: _252  and  _253
REMARK  114  A    between atoms: _252  and  _255
REMARK  115  A    between atoms: _255  and  _256
REMARK  116  A    between atoms: _259  and  _261
REMARK  117  A    between atoms: _261  and  _262
REMARK  118  A    between atoms: _264  and  _266
REMARK  119  A    between atoms: _266  and  _267
REMARK  120  A    between atoms: _270  and  _272
REMARK  121  A    between atoms: _272  and  _273
REMARK  122  A    between atoms: _275  and  _277
REMARK  123  A    between atoms: _277  and  _278
REMARK  124  A    between atoms: _277  and  _280
REMARK  125  A    between atoms: _283  and  _285
REMARK  126  A    between atoms: _285  and  _286
REMARK  127  A    between atoms: _288  and  _290
REMARK  128  A    between atoms: _290  and  _291
REMARK  129  A    between atoms: _290  and  _293
REMARK  130  A    between atoms: _293  and  _294
REMARK  131  A    between atoms: _300  and  _302
REMARK  132  A    between atoms: _302  and  _303
REMARK  133  A    between atoms: _302  and  _305
REMARK  134  A    between atoms: _305  and  _306
REMARK  135  A    between atoms: _311  and  _312
REMARK  136  A    between atoms: _314  and  _316
REMARK  137  A    between atoms: _316  and  _317
REMARK  138  A    between atoms: _316  and  _319
REMARK  139  A    between atoms: _319  and  _320
REMARK  140  A    between atoms: _325  and  _326
REMARK  141  A    between atoms: _328  and  _330
REMARK  142  A    between atoms: _330  and  _331
REMARK  143  A    between atoms: _330  and  _333
REMARK  144  A    between atoms: _336  and  _338
REMARK  145  A    between atoms: _338  and  _339
REMARK  146  A    between atoms: _338  and  _341
REMARK  147  A    between atoms: _341  and  _342
REMARK  148  A    between atoms: _345  and  _347
REMARK  149  A    between atoms: _347  and  _348
REMARK  150  A    between atoms: _347  and  _350
REMARK  151  A    between atoms: _353  and  _355
REMARK  152  A    between atoms: _355  and  _356
REMARK  153  A    between atoms: _355  and  _358
REMARK  154  A    between atoms: _358  and  _359
REMARK  155  A    between atoms: _362  and  _364
REMARK  156  A    between atoms: _364  and  _365
REMARK  157  A    between atoms: _364  and  _367
REMARK  158  A    between atoms: _367  and  _368
REMARK  159  A    between atoms: _371  and  _373
REMARK  160  A    between atoms: _373  and  _374
REMARK  161  A    between atoms: _373  and  _376
REMARK  162  A    between atoms: _376  and  _377
REMARK  163  A    between atoms: _377  and  _378
REMARK  164  A    between atoms: _378  and  _379
REMARK  165  A    between atoms: _379  and  _380
REMARK  166  A    between atoms: _384  and  _386
REMARK  167  A    between atoms: _386  and  _387
REMARK  168  A    between atoms: _386  and  _389
REMARK  169  A    between atoms: _389  and  _390
REMARK  170  A    between atoms: _395  and  _397
REMARK  171  A    between atoms: _397  and  _398
REMARK  172  A    between atoms: _401  and  _403
REMARK  173  A    between atoms: _403  and  _404
REMARK  174  A    between atoms: _403  and  _406
REMARK  175  A    between atoms: _406  and  _407
REMARK  176  A    between atoms: _417  and  _419
REMARK  177  A    between atoms: _419  and  _420
REMARK  178  A    between atoms: _419  and  _422
REMARK  179  A    between atoms: _422  and  _423
REMARK  180  A    between atoms: _423  and  _424
REMARK  181  A    between atoms: _427  and  _429
REMARK  182  A    between atoms: _429  and  _430
REMARK  183  A    between atoms: _429  and  _432
REMARK  184  A    between atoms: _432  and  _433
REMARK  185  A    between atoms: _435  and  _437
REMARK  186  A    between atoms: _437  and  _438
REMARK  187  A    between atoms: _437  and  _440
REMARK  188  A    between atoms: _440  and  _441
REMARK  189  A    between atoms: _447  and  _449
REMARK  190  A    between atoms: _449  and  _450
REMARK  191  A    between atoms: _449  and  _452
REMARK  192  A    between atoms: _452  and  _453
REMARK  193  A    between atoms: _456  and  _458
REMARK  194  A    between atoms: _458  and  _459
REMARK  195  A    between atoms: _458  and  _461
REMARK  196  A    between atoms: _464  and  _466
REMARK  197  A    between atoms: _466  and  _467
REMARK  198  A    between atoms: _469  and  _471
REMARK  199  A    between atoms: _471  and  _472
REMARK  200  A    between atoms: _471  and  _474
REMARK  201  A    between atoms: _474  and  _475
REMARK  202  A    between atoms: _478  and  _480
REMARK  203  A    between atoms: _480  and  _481
REMARK  204  A    between atoms: _480  and  _483
REMARK  205  A    between atoms: _483  and  _484
REMARK  206  A    between atoms: _484  and  _485
REMARK  207  A    between atoms: _485  and  _486
REMARK  208  A    between atoms: _486  and  _487
REMARK  209  A    between atoms: _491  and  _493
REMARK  210  A    between atoms: _493  and  _494
REMARK  211  A    between atoms: _493  and  _496
REMARK  212  A    between atoms: _499  and  _501
REMARK  213  A    between atoms: _501  and  _502
REMARK  214  A    between atoms: _501  and  _504
REMARK  215  A    between atoms: _504  and  _505
REMARK                            x       y       z     vdW  Elec       q    Type
REMARK                         _______ _______ _______ _____ _____    ______ ____
ROOT
ATOM      1  O   HOH     1       4.215  31.024  22.901  0.00  0.00    +0.000 OA
ENDROOT
TORSDOF 0
REMARK  Name = ../refined-set-2016/3qdd/3qdd_pocket.pdb
REMARK  215 active torsions:
REMARK  status: ('A' for Active; 'I' for Inactive)
REMARK    1  A    between atoms: _1  and  _3
REMARK    2  A    between atoms: _3  and  _4
REMARK    3  A    between atoms: _3  and  _6
REMARK    4  A    between atoms: _6  and  _7
REMARK    5  A    between atoms: _13  and  _15
REMARK    6  A    between atoms: _15  and  _16
REMARK    7  A    between atoms: _15  and  _18
REMARK    8  A    between atoms: _18  and  _19
REMARK    9  A    between atoms: _22  and  _24
REMARK   10  A    between atoms: _24  and  _25
REMARK   11  A    between atoms: _24  and  _27
REMARK   12  A    between atoms: _27  and  _28
REMARK   13  A    between atoms: _28  and  _29
REMARK   14  A    between atoms: _31  and  _33
REMARK   15  A    between atoms: _33  and  _34
REMARK   16  A    between atoms: _33  and  _36
REMARK   17  A    between atoms: _36  and  _37
REMARK   18  A    between atoms: _37  and  _38
REMARK   19  A    between atoms: _41  and  _43
REMARK   20  A    between atoms: _43  and  _44
REMARK   21  A    between atoms: _43  and  _46
REMARK   22  A    between atoms: _46  and  _47
REMARK   23  A    between atoms: _50  and  _52
REMARK   24  A    between atoms: _52  and  _53
REMARK   25  A    between atoms: _52  and  _55
REMARK   26  A    between atoms: _55  and  _56
REMARK   27  A    between atoms: _59  and  _61
REMARK   28  A    between atoms: _61  and  _62
REMARK   29  A    between atoms: _61  and  _64
REMARK   30  A    between atoms: _64  and  _65
REMARK   31  A    between atoms: _67  and  _69
REMARK   32  A    between atoms: _69  and  _70
REMARK   33  A    between atoms: _69  and  _72
REMARK   34  A    between atoms: _72  and  _73
REMARK   35  A    between atoms: _78  and  _80
REMARK   36  A    between atoms: _80  and  _81
REMARK   37  A    between atoms: _80  and  _83
REMARK   38  A    between atoms: _83  and  _84
REMARK   39  A    between atoms: _86  and  _88
REMARK   40  A    between atoms: _88  and  _89
REMARK   41  A    between atoms: _88  and  _91
REMARK   42  A    between atoms: _91  and  _92
REMARK   43  A    between atoms: _94  and  _96
REMARK   44  A    between atoms: _96  and  _97
REMARK   45  A    between atoms: _96  and  _99
REMARK   46  A    between atoms: _99  and  _100
REMARK   47  A    between atoms: _103  and  _105
REMARK   48  A    between atoms: _105  and  _106
REMARK   49  A    between atoms: _109  and  _111
REMARK   50  A    between atoms: _111  and  _112
REMARK   51  A    between atoms: _111  and  _114
REMARK   52  A    between atoms: _114  and  _115
REMARK   53  A    between atoms: _118  and  _120
REMARK   54  A    between atoms: _120  and  _121
REMARK   55  A    between atoms: _120  and  _123
REMARK   56  A    between atoms: _123  and  _124
REMARK   57  A    between atoms: _124  and  _125
REMARK   58  A    between atoms: _125  and  _126
REMARK   59  A    between atoms: _126  and  _127
REMARK   60  A    between atoms: _131  and  _133
REMARK   61  A    between atoms: _133  and  _134
REMARK   62  A    between atoms: _133  and  _136
REMARK   63  A    between atoms: _136  and  _137
REMARK   64  A    between atoms: _140  and  _142
REMARK   65  A    between atoms: _142  and  _143
REMARK   66  A    between atoms: _142  and  _145
REMARK   67  A    between atoms: _145  and  _146
REMARK   68  A    between atoms: _149  and  _151
REMARK   69  A    between atoms: _151  and  _152
REMARK   70  A    between atoms: _151  and  _154
REMARK   71  A    between atoms: _157  and  _159
REMARK   72  A    between atoms: _159  and  _160
REMARK   73  A    between atoms: _159  and  _162
REMARK   74  A    between atoms: _162  and  _163
REMARK   75  A    between atoms: _166  and  _168
REMARK   76  A    between atoms: _168  and  _169
REMARK   77  A    between atoms: _168  and  _171
REMARK   78  A    between atoms: _171  and  _172
REMARK   79  A    between atoms: _175  and  _177
REMARK   80  A    between atoms: _177  and  _178
REMARK   81  A    between atoms: _180  and  _182
REMARK   82  A    between atoms: _182  and  _183
REMARK   83  A    between atoms: _182  and  _185
REMARK   84  A    between atoms: _185  and  _186
REMARK   85  A    between atoms: _189  and  _191
REMARK   86  A    between atoms: _191  and  _192
REMARK   87  A    between atoms: _194  and  _196
REMARK   88  A    between atoms: _196  and  _197
REMARK   89  A    between atoms: _196  and  _199
REMARK   90  A    between atoms: _199  and  _200
REMARK   91  A    between atoms: _200  and  _201
REMARK   92  A    between atoms: _203  and  _205
REMARK   93  A    between atoms: _205  and  _206
REMARK   94  A    between atoms: _205  and  _208
REMARK   95  A    between atoms: _208  and  _209
REMARK   96  A    between atoms: _212  and  _214
REMARK   97  A    between atoms: _214  and  _215
REMARK   98  A    between atoms: _214  and  _217
REMARK   99  A    between atoms: _217  and  _218
REMARK  100  A    between atoms: _221  and  _223
REMARK  101  A    between atoms: _223  and  _224
REMARK  102  A    between atoms: _223  and  _226
REMARK  103  A    between atoms: _226  and  _227
REMARK  104  A    between atoms: _230  and  _232
REMARK  105  A    between atoms: _232  and  _233
REMARK  106  A    between atoms: _232  and  _235
REMARK  107  A    between atoms: _235  and  _236
REMARK  108  A    between atoms: _239  and  _241
REMARK  109  A    between atoms: _241  and  _242
REMARK  110  A    between atoms: _241  and  _244
REMARK  111  A    between atoms: _244  and  _245
REMARK  112  A    between atoms: _250  and  _252
REMARK  113  A    between atoms: _252  and  _253
REMARK  114  A    between atoms: _252  and  _255
REMARK  115  A    between atoms: _255  and  _256
REMARK  116  A    between atoms: _259  and  _261
REMARK  117  A    between atoms: _261  and  _262
REMARK  118  A    between atoms: _264  and  _266
REMARK  119  A    between atoms: _266  and  _267
REMARK  120  A    between atoms: _270  and  _272
REMARK  121  A    between atoms: _272  and  _273
REMARK  122  A    between atoms: _275  and  _277
REMARK  123  A    between atoms: _277  and  _278
REMARK  124  A    between atoms: _277  and  _280
REMARK  125  A    between atoms: _283  and  _285
REMARK  126  A    between atoms: _285  and  _286
REMARK  127  A    between atoms: _288  and  _290
REMARK  128  A    between atoms: _290  and  _291
REMARK  129  A    between atoms: _290  and  _293
REMARK  130  A    between atoms: _293  and  _294
REMARK  131  A    between atoms: _300  and  _302
REMARK  132  A    between atoms: _302  and  _303
REMARK  133  A    between atoms: _302  and  _305
REMARK  134  A    between atoms: _305  and  _306
REMARK  135  A    between atoms: _311  and  _312
REMARK  136  A    between atoms: _314  and  _316
REMARK  137  A    between atoms: _316  and  _317
REMARK  138  A    between atoms: _316  and  _319
REMARK  139  A    between atoms: _319  and  _320
REMARK  140  A    between atoms: _325  and  _326
REMARK  141  A    between atoms: _328  and  _330
REMARK  142  A    between atoms: _330  and  _331
REMARK  143  A    between atoms: _330  and  _333
REMARK  144  A    between atoms: _336  and  _338
REMARK  145  A    between atoms: _338  and  _339
REMARK  146  A    between atoms: _338  and  _341
REMARK  147  A    between atoms: _341  and  _342
REMARK  148  A    between atoms: _345  and  _347
REMARK  149  A    between atoms: _347  and  _348
REMARK  150  A    between atoms: _347  and  _350
REMARK  151  A    between atoms: _353  and  _355
REMARK  152  A    between atoms: _355  and  _356
REMARK  153  A    between atoms: _355  and  _358
REMARK  154  A    between atoms: _358  and  _359
REMARK  155  A    between atoms: _362  and  _364
REMARK  156  A    between atoms: _364  and  _365
REMARK  157  A    between atoms: _364  and  _367
REMARK  158  A    between atoms: _367  and  _368
REMARK  159  A    between atoms: _371  and  _373
REMARK  160  A    between atoms: _373  and  _374
REMARK  161  A    between atoms: _373  and  _376
REMARK  162  A    between atoms: _376  and  _377
REMARK  163  A    between atoms: _377  and  _378
REMARK  164  A    between atoms: _378  and  _379
REMARK  165  A    between atoms: _379  and  _380
REMARK  166  A    between atoms: _384  and  _386
REMARK  167  A    between atoms: _386  and  _387
REMARK  168  A    between atoms: _386  and  _389
REMARK  169  A    between atoms: _389  and  _390
REMARK  170  A    between atoms: _395  and  _397
REMARK  171  A    between atoms: _397  and  _398
REMARK  172  A    between atoms: _401  and  _403
REMARK  173  A    between atoms: _403  and  _404
REMARK  174  A    between atoms: _403  and  _406
REMARK  175  A    between atoms: _406  and  _407
REMARK  176  A    between atoms: _417  and  _419
REMARK  177  A    between atoms: _419  and  _420
REMARK  178  A    between atoms: _419  and  _422
REMARK  179  A    between atoms: _422  and  _423
REMARK  180  A    between atoms: _423  and  _424
REMARK  181  A    between atoms: _427  and  _429
REMARK  182  A    between atoms: _429  and  _430
REMARK  183  A    between atoms: _429  and  _432
REMARK  184  A    between atoms: _432  and  _433
REMARK  185  A    between atoms: _435  and  _437
REMARK  186  A    between atoms: _437  and  _438
REMARK  187  A    between atoms: _437  and  _440
REMARK  188  A    between atoms: _440  and  _441
REMARK  189  A    between atoms: _447  and  _449
REMARK  190  A    between atoms: _449  and  _450
REMARK  191  A    between atoms: _449  and  _452
REMARK  192  A    between atoms: _452  and  _453
REMARK  193  A    between atoms: _456  and  _458
REMARK  194  A    between atoms: _458  and  _459
REMARK  195  A    between atoms: _458  and  _461
REMARK  196  A    between atoms: _464  and  _466
REMARK  197  A    between atoms: _466  and  _467
REMARK  198  A    between atoms: _469  and  _471
REMARK  199  A    between atoms: _471  and  _472
REMARK  200  A    between atoms: _471  and  _474
REMARK  201  A    between atoms: _474  and  _475
REMARK  202  A    between atoms: _478  and  _480
REMARK  203  A    between atoms: _480  and  _481
REMARK  204  A    between atoms: _480  and  _483
REMARK  205  A    between atoms: _483  and  _484
REMARK  206  A    between atoms: _484  and  _485
REMARK  207  A    between atoms: _485  and  _486
REMARK  208  A    between atoms: _486  and  _487
REMARK  209  A    between atoms: _491  and  _493
REMARK  210  A    between atoms: _493  and  _494
REMARK  211  A    between atoms: _493  and  _496
REMARK  212  A    between atoms: _499  and  _501
REMARK  213  A    between atoms: _501  and  _502
REMARK  214  A    between atoms: _501  and  _504
REMARK  215  A    between atoms: _504  and  _505
REMARK                            x       y       z     vdW  Elec       q    Type
REMARK                         _______ _______ _______ _____ _____    ______ ____
ROOT
ATOM      1  O   HOH     1      -4.294  38.520  18.308  0.00  0.00    +0.000 OA
ENDROOT
TORSDOF 0
REMARK  Name = ../refined-set-2016/3qdd/3qdd_pocket.pdb
REMARK  215 active torsions:
REMARK  status: ('A' for Active; 'I' for Inactive)
REMARK    1  A    between atoms: _1  and  _3
REMARK    2  A    between atoms: _3  and  _4
REMARK    3  A    between atoms: _3  and  _6
REMARK    4  A    between atoms: _6  and  _7
REMARK    5  A    between atoms: _13  and  _15
REMARK    6  A    between atoms: _15  and  _16
REMARK    7  A    between atoms: _15  and  _18
REMARK    8  A    between atoms: _18  and  _19
REMARK    9  A    between atoms: _22  and  _24
REMARK   10  A    between atoms: _24  and  _25
REMARK   11  A    between atoms: _24  and  _27
REMARK   12  A    between atoms: _27  and  _28
REMARK   13  A    between atoms: _28  and  _29
REMARK   14  A    between atoms: _31  and  _33
REMARK   15  A    between atoms: _33  and  _34
REMARK   16  A    between atoms: _33  and  _36
REMARK   17  A    between atoms: _36  and  _37
REMARK   18  A    between atoms: _37  and  _38
REMARK   19  A    between atoms: _41  and  _43
REMARK   20  A    between atoms: _43  and  _44
REMARK   21  A    between atoms: _43  and  _46
REMARK   22  A    between atoms: _46  and  _47
REMARK   23  A    between atoms: _50  and  _52
REMARK   24  A    between atoms: _52  and  _53
REMARK   25  A    between atoms: _52  and  _55
REMARK   26  A    between atoms: _55  and  _56
REMARK   27  A    between atoms: _59  and  _61
REMARK   28  A    between atoms: _61  and  _62
REMARK   29  A    between atoms: _61  and  _64
REMARK   30  A    between atoms: _64  and  _65
REMARK   31  A    between atoms: _67  and  _69
REMARK   32  A    between atoms: _69  and  _70
REMARK   33  A    between atoms: _69  and  _72
REMARK   34  A    between atoms: _72  and  _73
REMARK   35  A    between atoms: _78  and  _80
REMARK   36  A    between atoms: _80  and  _81
REMARK   37  A    between atoms: _80  and  _83
REMARK   38  A    between atoms: _83  and  _84
REMARK   39  A    between atoms: _86  and  _88
REMARK   40  A    between atoms: _88  and  _89
REMARK   41  A    between atoms: _88  and  _91
REMARK   42  A    between atoms: _91  and  _92
REMARK   43  A    between atoms: _94  and  _96
REMARK   44  A    between atoms: _96  and  _97
REMARK   45  A    between atoms: _96  and  _99
REMARK   46  A    between atoms: _99  and  _100
REMARK   47  A    between atoms: _103  and  _105
REMARK   48  A    between atoms: _105  and  _106
REMARK   49  A    between atoms: _109  and  _111
REMARK   50  A    between atoms: _111  and  _112
REMARK   51  A    between atoms: _111  and  _114
REMARK   52  A    between atoms: _114  and  _115
REMARK   53  A    between atoms: _118  and  _120
REMARK   54  A    between atoms: _120  and  _121
REMARK   55  A    between atoms: _120  and  _123
REMARK   56  A    between atoms: _123  and  _124
REMARK   57  A    between atoms: _124  and  _125
REMARK   58  A    between atoms: _125  and  _126
REMARK   59  A    between atoms: _126  and  _127
REMARK   60  A    between atoms: _131  and  _133
REMARK   61  A    between atoms: _133  and  _134
REMARK   62  A    between atoms: _133  and  _136
REMARK   63  A    between atoms: _136  and  _137
REMARK   64  A    between atoms: _140  and  _142
REMARK   65  A    between atoms: _142  and  _143
REMARK   66  A    between atoms: _142  and  _145
REMARK   67  A    between atoms: _145  and  _146
REMARK   68  A    between atoms: _149  and  _151
REMARK   69  A    between atoms: _151  and  _152
REMARK   70  A    between atoms: _151  and  _154
REMARK   71  A    between atoms: _157  and  _159
REMARK   72  A    between atoms: _159  and  _160
REMARK   73  A    between atoms: _159  and  _162
REMARK   74  A    between atoms: _162  and  _163
REMARK   75  A    between atoms: _166  and  _168
REMARK   76  A    between atoms: _168  and  _169
REMARK   77  A    between atoms: _168  and  _171
REMARK   78  A    between atoms: _171  and  _172
REMARK   79  A    between atoms: _175  and  _177
REMARK   80  A    between atoms: _177  and  _178
REMARK   81  A    between atoms: _180  and  _182
REMARK   82  A    between atoms: _182  and  _183
REMARK   83  A    between atoms: _182  and  _185
REMARK   84  A    between atoms: _185  and  _186
REMARK   85  A    between atoms: _189  and  _191
REMARK   86  A    between atoms: _191  and  _192
REMARK   87  A    between atoms: _194  and  _196
REMARK   88  A    between atoms: _196  and  _197
REMARK   89  A    between atoms: _196  and  _199
REMARK   90  A    between atoms: _199  and  _200
REMARK   91  A    between atoms: _200  and  _201
REMARK   92  A    between atoms: _203  and  _205
REMARK   93  A    between atoms: _205  and  _206
REMARK   94  A    between atoms: _205  and  _208
REMARK   95  A    between atoms: _208  and  _209
REMARK   96  A    between atoms: _212  and  _214
REMARK   97  A    between atoms: _214  and  _215
REMARK   98  A    between atoms: _214  and  _217
REMARK   99  A    between atoms: _217  and  _218
REMARK  100  A    between atoms: _221  and  _223
REMARK  101  A    between atoms: _223  and  _224
REMARK  102  A    between atoms: _223  and  _226
REMARK  103  A    between atoms: _226  and  _227
REMARK  104  A    between atoms: _230  and  _232
REMARK  105  A    between atoms: _232  and  _233
REMARK  106  A    between atoms: _232  and  _235
REMARK  107  A    between atoms: _235  and  _236
REMARK  108  A    between atoms: _239  and  _241
REMARK  109  A    between atoms: _241  and  _242
REMARK  110  A    between atoms: _241  and  _244
REMARK  111  A    between atoms: _244  and  _245
REMARK  112  A    between atoms: _250  and  _252
REMARK  113  A    between atoms: _252  and  _253
REMARK  114  A    between atoms: _252  and  _255
REMARK  115  A    between atoms: _255  and  _256
REMARK  116  A    between atoms: _259  and  _261
REMARK  117  A    between atoms: _261  and  _262
REMARK  118  A    between atoms: _264  and  _266
REMARK  119  A    between atoms: _266  and  _267
REMARK  120  A    between atoms: _270  and  _272
REMARK  121  A    between atoms: _272  and  _273
REMARK  122  A    between atoms: _275  and  _277
REMARK  123  A    between atoms: _277  and  _278
REMARK  124  A    between atoms: _277  and  _280
REMARK  125  A    between atoms: _283  and  _285
REMARK  126  A    between atoms: _285  and  _286
REMARK  127  A    between atoms: _288  and  _290
REMARK  128  A    between atoms: _290  and  _291
REMARK  129  A    between atoms: _290  and  _293
REMARK  130  A    between atoms: _293  and  _294
REMARK  131  A    between atoms: _300  and  _302
REMARK  132  A    between atoms: _302  and  _303
REMARK  133  A    between atoms: _302  and  _305
REMARK  134  A    between atoms: _305  and  _306
REMARK  135  A    between atoms: _311  and  _312
REMARK  136  A    between atoms: _314  and  _316
REMARK  137  A    between atoms: _316  and  _317
REMARK  138  A    between atoms: _316  and  _319
REMARK  139  A    between atoms: _319  and  _320
REMARK  140  A    between atoms: _325  and  _326
REMARK  141  A    between atoms: _328  and  _330
REMARK  142  A    between atoms: _330  and  _331
REMARK  143  A    between atoms: _330  and  _333
REMARK  144  A    between atoms: _336  and  _338
REMARK  145  A    between atoms: _338  and  _339
REMARK  146  A    between atoms: _338  and  _341
REMARK  147  A    between atoms: _341  and  _342
REMARK  148  A    between atoms: _345  and  _347
REMARK  149  A    between atoms: _347  and  _348
REMARK  150  A    between atoms: _347  and  _350
REMARK  151  A    between atoms: _353  and  _355
REMARK  152  A    between atoms: _355  and  _356
REMARK  153  A    between atoms: _355  and  _358
REMARK  154  A    between atoms: _358  and  _359
REMARK  155  A    between atoms: _362  and  _364
REMARK  156  A    between atoms: _364  and  _365
REMARK  157  A    between atoms: _364  and  _367
REMARK  158  A    between atoms: _367  and  _368
REMARK  159  A    between atoms: _371  and  _373
REMARK  160  A    between atoms: _373  and  _374
REMARK  161  A    between atoms: _373  and  _376
REMARK  162  A    between atoms: _376  and  _377
REMARK  163  A    between atoms: _377  and  _378
REMARK  164  A    between atoms: _378  and  _379
REMARK  165  A    between atoms: _379  and  _380
REMARK  166  A    between atoms: _384  and  _386
REMARK  167  A    between atoms: _386  and  _387
REMARK  168  A    between atoms: _386  and  _389
REMARK  169  A    between atoms: _389  and  _390
REMARK  170  A    between atoms: _395  and  _397
REMARK  171  A    between atoms: _397  and  _398
REMARK  172  A    between atoms: _401  and  _403
REMARK  173  A    between atoms: _403  and  _404
REMARK  174  A    between atoms: _403  and  _406
REMARK  175  A    between atoms: _406  and  _407
REMARK  176  A    between atoms: _417  and  _419
REMARK  177  A    between atoms: _419  and  _420
REMARK  178  A    between atoms: _419  and  _422
REMARK  179  A    between atoms: _422  and  _423
REMARK  180  A    between atoms: _423  and  _424
REMARK  181  A    between atoms: _427  and  _429
REMARK  182  A    between atoms: _429  and  _430
REMARK  183  A    between atoms: _429  and  _432
REMARK  184  A    between atoms: _432  and  _433
REMARK  185  A    between atoms: _435  and  _437
REMARK  186  A    between atoms: _437  and  _438
REMARK  187  A    between atoms: _437  and  _440
REMARK  188  A    between atoms: _440  and  _441
REMARK  189  A    between atoms: _447  and  _449
REMARK  190  A    between atoms: _449  and  _450
REMARK  191  A    between atoms: _449  and  _452
REMARK  192  A    between atoms: _452  and  _453
REMARK  193  A    between atoms: _456  and  _458
REMARK  194  A    between atoms: _458  and  _459
REMARK  195  A    between atoms: _458  and  _461
REMARK  196  A    between atoms: _464  and  _466
REMARK  197  A    between atoms: _466  and  _467
REMARK  198  A    between atoms: _469  and  _471
REMARK  199  A    between atoms: _471  and  _472
REMARK  200  A    between atoms: _471  and  _474
REMARK  201  A    between atoms: _474  and  _475
REMARK  202  A    between atoms: _478  and  _480
REMARK  203  A    between atoms: _480  and  _481
REMARK  204  A    between atoms: _480  and  _483
REMARK  205  A    between atoms: _483  and  _484
REMARK  206  A    between atoms: _484  and  _485
REMARK  207  A    between atoms: _485  and  _486
REMARK  208  A    between atoms: _486  and  _487
REMARK  209  A    between atoms: _491  and  _493
REMARK  210  A    between atoms: _493  and  _494
REMARK  211  A    between atoms: _493  and  _496
REMARK  212  A    between atoms: _499  and  _501
REMARK  213  A    between atoms: _501  and  _502
REMARK  214  A    between atoms: _501  and  _504
REMARK  215  A    between atoms: _504  and  _505
REMARK                            x       y       z     vdW  Elec       q    Type
REMARK                         _______ _______ _______ _____ _____    ______ ____
ROOT
ATOM      1  O   HOH     1      -6.184  35.880  22.502  0.00  0.00    +0.000 OA
ENDROOT
TORSDOF 0
REMARK  Name = ../refined-set-2016/3qdd/3qdd_pocket.pdb
REMARK  215 active torsions:
REMARK  status: ('A' for Active; 'I' for Inactive)
REMARK    1  A    between atoms: _1  and  _3
REMARK    2  A    between atoms: _3  and  _4
REMARK    3  A    between atoms: _3  and  _6
REMARK    4  A    between atoms: _6  and  _7
REMARK    5  A    between atoms: _13  and  _15
REMARK    6  A    between atoms: _15  and  _16
REMARK    7  A    between atoms: _15  and  _18
REMARK    8  A    between atoms: _18  and  _19
REMARK    9  A    between atoms: _22  and  _24
REMARK   10  A    between atoms: _24  and  _25
REMARK   11  A    between atoms: _24  and  _27
REMARK   12  A    between atoms: _27  and  _28
REMARK   13  A    between atoms: _28  and  _29
REMARK   14  A    between atoms: _31  and  _33
REMARK   15  A    between atoms: _33  and  _34
REMARK   16  A    between atoms: _33  and  _36
REMARK   17  A    between atoms: _36  and  _37
REMARK   18  A    between atoms: _37  and  _38
REMARK   19  A    between atoms: _41  and  _43
REMARK   20  A    between atoms: _43  and  _44
REMARK   21  A    between atoms: _43  and  _46
REMARK   22  A    between atoms: _46  and  _47
REMARK   23  A    between atoms: _50  and  _52
REMARK   24  A    between atoms: _52  and  _53
REMARK   25  A    between atoms: _52  and  _55
REMARK   26  A    between atoms: _55  and  _56
REMARK   27  A    between atoms: _59  and  _61
REMARK   28  A    between atoms: _61  and  _62
REMARK   29  A    between atoms: _61  and  _64
REMARK   30  A    between atoms: _64  and  _65
REMARK   31  A    between atoms: _67  and  _69
REMARK   32  A    between atoms: _69  and  _70
REMARK   33  A    between atoms: _69  and  _72
REMARK   34  A    between atoms: _72  and  _73
REMARK   35  A    between atoms: _78  and  _80
REMARK   36  A    between atoms: _80  and  _81
REMARK   37  A    between atoms: _80  and  _83
REMARK   38  A    between atoms: _83  and  _84
REMARK   39  A    between atoms: _86  and  _88
REMARK   40  A    between atoms: _88  and  _89
REMARK   41  A    between atoms: _88  and  _91
REMARK   42  A    between atoms: _91  and  _92
REMARK   43  A    between atoms: _94  and  _96
REMARK   44  A    between atoms: _96  and  _97
REMARK   45  A    between atoms: _96  and  _99
REMARK   46  A    between atoms: _99  and  _100
REMARK   47  A    between atoms: _103  and  _105
REMARK   48  A    between atoms: _105  and  _106
REMARK   49  A    between atoms: _109  and  _111
REMARK   50  A    between atoms: _111  and  _112
REMARK   51  A    between atoms: _111  and  _114
REMARK   52  A    between atoms: _114  and  _115
REMARK   53  A    between atoms: _118  and  _120
REMARK   54  A    between atoms: _120  and  _121
REMARK   55  A    between atoms: _120  and  _123
REMARK   56  A    between atoms: _123  and  _124
REMARK   57  A    between atoms: _124  and  _125
REMARK   58  A    between atoms: _125  and  _126
REMARK   59  A    between atoms: _126  and  _127
REMARK   60  A    between atoms: _131  and  _133
REMARK   61  A    between atoms: _133  and  _134
REMARK   62  A    between atoms: _133  and  _136
REMARK   63  A    between atoms: _136  and  _137
REMARK   64  A    between atoms: _140  and  _142
REMARK   65  A    between atoms: _142  and  _143
REMARK   66  A    between atoms: _142  and  _145
REMARK   67  A    between atoms: _145  and  _146
REMARK   68  A    between atoms: _149  and  _151
REMARK   69  A    between atoms: _151  and  _152
REMARK   70  A    between atoms: _151  and  _154
REMARK   71  A    between atoms: _157  and  _159
REMARK   72  A    between atoms: _159  and  _160
REMARK   73  A    between atoms: _159  and  _162
REMARK   74  A    between atoms: _162  and  _163
REMARK   75  A    between atoms: _166  and  _168
REMARK   76  A    between atoms: _168  and  _169
REMARK   77  A    between atoms: _168  and  _171
REMARK   78  A    between atoms: _171  and  _172
REMARK   79  A    between atoms: _175  and  _177
REMARK   80  A    between atoms: _177  and  _178
REMARK   81  A    between atoms: _180  and  _182
REMARK   82  A    between atoms: _182  and  _183
REMARK   83  A    between atoms: _182  and  _185
REMARK   84  A    between atoms: _185  and  _186
REMARK   85  A    between atoms: _189  and  _191
REMARK   86  A    between atoms: _191  and  _192
REMARK   87  A    between atoms: _194  and  _196
REMARK   88  A    between atoms: _196  and  _197
REMARK   89  A    between atoms: _196  and  _199
REMARK   90  A    between atoms: _199  and  _200
REMARK   91  A    between atoms: _200  and  _201
REMARK   92  A    between atoms: _203  and  _205
REMARK   93  A    between atoms: _205  and  _206
REMARK   94  A    between atoms: _205  and  _208
REMARK   95  A    between atoms: _208  and  _209
REMARK   96  A    between atoms: _212  and  _214
REMARK   97  A    between atoms: _214  and  _215
REMARK   98  A    between atoms: _214  and  _217
REMARK   99  A    between atoms: _217  and  _218
REMARK  100  A    between atoms: _221  and  _223
REMARK  101  A    between atoms: _223  and  _224
REMARK  102  A    between atoms: _223  and  _226
REMARK  103  A    between atoms: _226  and  _227
REMARK  104  A    between atoms: _230  and  _232
REMARK  105  A    between atoms: _232  and  _233
REMARK  106  A    between atoms: _232  and  _235
REMARK  107  A    between atoms: _235  and  _236
REMARK  108  A    between atoms: _239  and  _241
REMARK  109  A    between atoms: _241  and  _242
REMARK  110  A    between atoms: _241  and  _244
REMARK  111  A    between atoms: _244  and  _245
REMARK  112  A    between atoms: _250  and  _252
REMARK  113  A    between atoms: _252  and  _253
REMARK  114  A    between atoms: _252  and  _255
REMARK  115  A    between atoms: _255  and  _256
REMARK  116  A    between atoms: _259  and  _261
REMARK  117  A    between atoms: _261  and  _262
REMARK  118  A    between atoms: _264  and  _266
REMARK  119  A    between atoms: _266  and  _267
REMARK  120  A    between atoms: _270  and  _272
REMARK  121  A    between atoms: _272  and  _273
REMARK  122  A    between atoms: _275  and  _277
REMARK  123  A    between atoms: _277  and  _278
REMARK  124  A    between atoms: _277  and  _280
REMARK  125  A    between atoms: _283  and  _285
REMARK  126  A    between atoms: _285  and  _286
REMARK  127  A    between atoms: _288  and  _290
REMARK  128  A    between atoms: _290  and  _291
REMARK  129  A    between atoms: _290  and  _293
REMARK  130  A    between atoms: _293  and  _294
REMARK  131  A    between atoms: _300  and  _302
REMARK  132  A    between atoms: _302  and  _303
REMARK  133  A    between atoms: _302  and  _305
REMARK  134  A    between atoms: _305  and  _306
REMARK  135  A    between atoms: _311  and  _312
REMARK  136  A    between atoms: _314  and  _316
REMARK  137  A    between atoms: _316  and  _317
REMARK  138  A    between atoms: _316  and  _319
REMARK  139  A    between atoms: _319  and  _320
REMARK  140  A    between atoms: _325  and  _326
REMARK  141  A    between atoms: _328  and  _330
REMARK  142  A    between atoms: _330  and  _331
REMARK  143  A    between atoms: _330  and  _333
REMARK  144  A    between atoms: _336  and  _338
REMARK  145  A    between atoms: _338  and  _339
REMARK  146  A    between atoms: _338  and  _341
REMARK  147  A    between atoms: _341  and  _342
REMARK  148  A    between atoms: _345  and  _347
REMARK  149  A    between atoms: _347  and  _348
REMARK  150  A    between atoms: _347  and  _350
REMARK  151  A    between atoms: _353  and  _355
REMARK  152  A    between atoms: _355  and  _356
REMARK  153  A    between atoms: _355  and  _358
REMARK  154  A    between atoms: _358  and  _359
REMARK  155  A    between atoms: _362  and  _364
REMARK  156  A    between atoms: _364  and  _365
REMARK  157  A    between atoms: _364  and  _367
REMARK  158  A    between atoms: _367  and  _368
REMARK  159  A    between atoms: _371  and  _373
REMARK  160  A    between atoms: _373  and  _374
REMARK  161  A    between atoms: _373  and  _376
REMARK  162  A    between atoms: _376  and  _377
REMARK  163  A    between atoms: _377  and  _378
REMARK  164  A    between atoms: _378  and  _379
REMARK  165  A    between atoms: _379  and  _380
REMARK  166  A    between atoms: _384  and  _386
REMARK  167  A    between atoms: _386  and  _387
REMARK  168  A    between atoms: _386  and  _389
REMARK  169  A    between atoms: _389  and  _390
REMARK  170  A    between atoms: _395  and  _397
REMARK  171  A    between atoms: _397  and  _398
REMARK  172  A    between atoms: _401  and  _403
REMARK  173  A    between atoms: _403  and  _404
REMARK  174  A    between atoms: _403  and  _406
REMARK  175  A    between atoms: _406  and  _407
REMARK  176  A    between atoms: _417  and  _419
REMARK  177  A    between atoms: _419  and  _420
REMARK  178  A    between atoms: _419  and  _422
REMARK  179  A    between atoms: _422  and  _423
REMARK  180  A    between atoms: _423  and  _424
REMARK  181  A    between atoms: _427  and  _429
REMARK  182  A    between atoms: _429  and  _430
REMARK  183  A    between atoms: _429  and  _432
REMARK  184  A    between atoms: _432  and  _433
REMARK  185  A    between atoms: _435  and  _437
REMARK  186  A    between atoms: _437  and  _438
REMARK  187  A    between atoms: _437  and  _440
REMARK  188  A    between atoms: _440  and  _441
REMARK  189  A    between atoms: _447  and  _449
REMARK  190  A    between atoms: _449  and  _450
REMARK  191  A    between atoms: _449  and  _452
REMARK  192  A    between atoms: _452  and  _453
REMARK  193  A    between atoms: _456  and  _458
REMARK  194  A    between atoms: _458  and  _459
REMARK  195  A    between atoms: _458  and  _461
REMARK  196  A    between atoms: _464  and  _466
REMARK  197  A    between atoms: _466  and  _467
REMARK  198  A    between atoms: _469  and  _471
REMARK  199  A    between atoms: _471  and  _472
REMARK  200  A    between atoms: _471  and  _474
REMARK  201  A    between atoms: _474  and  _475
REMARK  202  A    between atoms: _478  and  _480
REMARK  203  A    between atoms: _480  and  _481
REMARK  204  A    between atoms: _480  and  _483
REMARK  205  A    between atoms: _483  and  _484
REMARK  206  A    between atoms: _484  and  _485
REMARK  207  A    between atoms: _485  and  _486
REMARK  208  A    between atoms: _486  and  _487
REMARK  209  A    between atoms: _491  and  _493
REMARK  210  A    between atoms: _493  and  _494
REMARK  211  A    between atoms: _493  and  _496
REMARK  212  A    between atoms: _499  and  _501
REMARK  213  A    between atoms: _501  and  _502
REMARK  214  A    between atoms: _501  and  _504
REMARK  215  A    between atoms: _504  and  _505
REMARK                            x       y       z     vdW  Elec       q    Type
REMARK                         _______ _______ _______ _____ _____    ______ ____
ROOT
ATOM      1  O   HOH     1      -0.272  32.903  21.481  0.00  0.00    +0.000 OA
ENDROOT
TORSDOF 0
REMARK  Name = ../refined-set-2016/3qdd/3qdd_pocket.pdb
REMARK  215 active torsions:
REMARK  status: ('A' for Active; 'I' for Inactive)
REMARK    1  A    between atoms: _1  and  _3
REMARK    2  A    between atoms: _3  and  _4
REMARK    3  A    between atoms: _3  and  _6
REMARK    4  A    between atoms: _6  and  _7
REMARK    5  A    between atoms: _13  and  _15
REMARK    6  A    between atoms: _15  and  _16
REMARK    7  A    between atoms: _15  and  _18
REMARK    8  A    between atoms: _18  and  _19
REMARK    9  A    between atoms: _22  and  _24
REMARK   10  A    between atoms: _24  and  _25
REMARK   11  A    between atoms: _24  and  _27
REMARK   12  A    between atoms: _27  and  _28
REMARK   13  A    between atoms: _28  and  _29
REMARK   14  A    between atoms: _31  and  _33
REMARK   15  A    between atoms: _33  and  _34
REMARK   16  A    between atoms: _33  and  _36
REMARK   17  A    between atoms: _36  and  _37
REMARK   18  A    between atoms: _37  and  _38
REMARK   19  A    between atoms: _41  and  _43
REMARK   20  A    between atoms: _43  and  _44
REMARK   21  A    between atoms: _43  and  _46
REMARK   22  A    between atoms: _46  and  _47
REMARK   23  A    between atoms: _50  and  _52
REMARK   24  A    between atoms: _52  and  _53
REMARK   25  A    between atoms: _52  and  _55
REMARK   26  A    between atoms: _55  and  _56
REMARK   27  A    between atoms: _59  and  _61
REMARK   28  A    between atoms: _61  and  _62
REMARK   29  A    between atoms: _61  and  _64
REMARK   30  A    between atoms: _64  and  _65
REMARK   31  A    between atoms: _67  and  _69
REMARK   32  A    between atoms: _69  and  _70
REMARK   33  A    between atoms: _69  and  _72
REMARK   34  A    between atoms: _72  and  _73
REMARK   35  A    between atoms: _78  and  _80
REMARK   36  A    between atoms: _80  and  _81
REMARK   37  A    between atoms: _80  and  _83
REMARK   38  A    between atoms: _83  and  _84
REMARK   39  A    between atoms: _86  and  _88
REMARK   40  A    between atoms: _88  and  _89
REMARK   41  A    between atoms: _88  and  _91
REMARK   42  A    between atoms: _91  and  _92
REMARK   43  A    between atoms: _94  and  _96
REMARK   44  A    between atoms: _96  and  _97
REMARK   45  A    between atoms: _96  and  _99
REMARK   46  A    between atoms: _99  and  _100
REMARK   47  A    between atoms: _103  and  _105
REMARK   48  A    between atoms: _105  and  _106
REMARK   49  A    between atoms: _109  and  _111
REMARK   50  A    between atoms: _111  and  _112
REMARK   51  A    between atoms: _111  and  _114
REMARK   52  A    between atoms: _114  and  _115
REMARK   53  A    between atoms: _118  and  _120
REMARK   54  A    between atoms: _120  and  _121
REMARK   55  A    between atoms: _120  and  _123
REMARK   56  A    between atoms: _123  and  _124
REMARK   57  A    between atoms: _124  and  _125
REMARK   58  A    between atoms: _125  and  _126
REMARK   59  A    between atoms: _126  and  _127
REMARK   60  A    between atoms: _131  and  _133
REMARK   61  A    between atoms: _133  and  _134
REMARK   62  A    between atoms: _133  and  _136
REMARK   63  A    between atoms: _136  and  _137
REMARK   64  A    between atoms: _140  and  _142
REMARK   65  A    between atoms: _142  and  _143
REMARK   66  A    between atoms: _142  and  _145
REMARK   67  A    between atoms: _145  and  _146
REMARK   68  A    between atoms: _149  and  _151
REMARK   69  A    between atoms: _151  and  _152
REMARK   70  A    between atoms: _151  and  _154
REMARK   71  A    between atoms: _157  and  _159
REMARK   72  A    between atoms: _159  and  _160
REMARK   73  A    between atoms: _159  and  _162
REMARK   74  A    between atoms: _162  and  _163
REMARK   75  A    between atoms: _166  and  _168
REMARK   76  A    between atoms: _168  and  _169
REMARK   77  A    between atoms: _168  and  _171
REMARK   78  A    between atoms: _171  and  _172
REMARK   79  A    between atoms: _175  and  _177
REMARK   80  A    between atoms: _177  and  _178
REMARK   81  A    between atoms: _180  and  _182
REMARK   82  A    between atoms: _182  and  _183
REMARK   83  A    between atoms: _182  and  _185
REMARK   84  A    between atoms: _185  and  _186
REMARK   85  A    between atoms: _189  and  _191
REMARK   86  A    between atoms: _191  and  _192
REMARK   87  A    between atoms: _194  and  _196
REMARK   88  A    between atoms: _196  and  _197
REMARK   89  A    between atoms: _196  and  _199
REMARK   90  A    between atoms: _199  and  _200
REMARK   91  A    between atoms: _200  and  _201
REMARK   92  A    between atoms: _203  and  _205
REMARK   93  A    between atoms: _205  and  _206
REMARK   94  A    between atoms: _205  and  _208
REMARK   95  A    between atoms: _208  and  _209
REMARK   96  A    between atoms: _212  and  _214
REMARK   97  A    between atoms: _214  and  _215
REMARK   98  A    between atoms: _214  and  _217
REMARK   99  A    between atoms: _217  and  _218
REMARK  100  A    between atoms: _221  and  _223
REMARK  101  A    between atoms: _223  and  _224
REMARK  102  A    between atoms: _223  and  _226
REMARK  103  A    between atoms: _226  and  _227
REMARK  104  A    between atoms: _230  and  _232
REMARK  105  A    between atoms: _232  and  _233
REMARK  106  A    between atoms: _232  and  _235
REMARK  107  A    between atoms: _235  and  _236
REMARK  108  A    between atoms: _239  and  _241
REMARK  109  A    between atoms: _241  and  _242
REMARK  110  A    between atoms: _241  and  _244
REMARK  111  A    between atoms: _244  and  _245
REMARK  112  A    between atoms: _250  and  _252
REMARK  113  A    between atoms: _252  and  _253
REMARK  114  A    between atoms: _252  and  _255
REMARK  115  A    between atoms: _255  and  _256
REMARK  116  A    between atoms: _259  and  _261
REMARK  117  A    between atoms: _261  and  _262
REMARK  118  A    between atoms: _264  and  _266
REMARK  119  A    between atoms: _266  and  _267
REMARK  120  A    between atoms: _270  and  _272
REMARK  121  A    between atoms: _272  and  _273
REMARK  122  A    between atoms: _275  and  _277
REMARK  123  A    between atoms: _277  and  _278
REMARK  124  A    between atoms: _277  and  _280
REMARK  125  A    between atoms: _283  and  _285
REMARK  126  A    between atoms: _285  and  _286
REMARK  127  A    between atoms: _288  and  _290
REMARK  128  A    between atoms: _290  and  _291
REMARK  129  A    between atoms: _290  and  _293
REMARK  130  A    between atoms: _293  and  _294
REMARK  131  A    between atoms: _300  and  _302
REMARK  132  A    between atoms: _302  and  _303
REMARK  133  A    between atoms: _302  and  _305
REMARK  134  A    between atoms: _305  and  _306
REMARK  135  A    between atoms: _311  and  _312
REMARK  136  A    between atoms: _314  and  _316
REMARK  137  A    between atoms: _316  and  _317
REMARK  138  A    between atoms: _316  and  _319
REMARK  139  A    between atoms: _319  and  _320
REMARK  140  A    between atoms: _325  and  _326
REMARK  141  A    between atoms: _328  and  _330
REMARK  142  A    between atoms: _330  and  _331
REMARK  143  A    between atoms: _330  and  _333
REMARK  144  A    between atoms: _336  and  _338
REMARK  145  A    between atoms: _338  and  _339
REMARK  146  A    between atoms: _338  and  _341
REMARK  147  A    between atoms: _341  and  _342
REMARK  148  A    between atoms: _345  and  _347
REMARK  149  A    between atoms: _347  and  _348
REMARK  150  A    between atoms: _347  and  _350
REMARK  151  A    between atoms: _353  and  _355
REMARK  152  A    between atoms: _355  and  _356
REMARK  153  A    between atoms: _355  and  _358
REMARK  154  A    between atoms: _358  and  _359
REMARK  155  A    between atoms: _362  and  _364
REMARK  156  A    between atoms: _364  and  _365
REMARK  157  A    between atoms: _364  and  _367
REMARK  158  A    between atoms: _367  and  _368
REMARK  159  A    between atoms: _371  and  _373
REMARK  160  A    between atoms: _373  and  _374
REMARK  161  A    between atoms: _373  and  _376
REMARK  162  A    between atoms: _376  and  _377
REMARK  163  A    between atoms: _377  and  _378
REMARK  164  A    between atoms: _378  and  _379
REMARK  165  A    between atoms: _379  and  _380
REMARK  166  A    between atoms: _384  and  _386
REMARK  167  A    between atoms: _386  and  _387
REMARK  168  A    between atoms: _386  and  _389
REMARK  169  A    between atoms: _389  and  _390
REMARK  170  A    between atoms: _395  and  _397
REMARK  171  A    between atoms: _397  and  _398
REMARK  172  A    between atoms: _401  and  _403
REMARK  173  A    between atoms: _403  and  _404
REMARK  174  A    between atoms: _403  and  _406
REMARK  175  A    between atoms: _406  and  _407
REMARK  176  A    between atoms: _417  and  _419
REMARK  177  A    between atoms: _419  and  _420
REMARK  178  A    between atoms: _419  and  _422
REMARK  179  A    between atoms: _422  and  _423
REMARK  180  A    between atoms: _423  and  _424
REMARK  181  A    between atoms: _427  and  _429
REMARK  182  A    between atoms: _429  and  _430
REMARK  183  A    between atoms: _429  and  _432
REMARK  184  A    between atoms: _432  and  _433
REMARK  185  A    between atoms: _435  and  _437
REMARK  186  A    between atoms: _437  and  _438
REMARK  187  A    between atoms: _437  and  _440
REMARK  188  A    between atoms: _440  and  _441
REMARK  189  A    between atoms: _447  and  _449
REMARK  190  A    between atoms: _449  and  _450
REMARK  191  A    between atoms: _449  and  _452
REMARK  192  A    between atoms: _452  and  _453
REMARK  193  A    between atoms: _456  and  _458
REMARK  194  A    between atoms: _458  and  _459
REMARK  195  A    between atoms: _458  and  _461
REMARK  196  A    between atoms: _464  and  _466
REMARK  197  A    between atoms: _466  and  _467
REMARK  198  A    between atoms: _469  and  _471
REMARK  199  A    between atoms: _471  and  _472
REMARK  200  A    between atoms: _471  and  _474
REMARK  201  A    between atoms: _474  and  _475
REMARK  202  A    between atoms: _478  and  _480
REMARK  203  A    between atoms: _480  and  _481
REMARK  204  A    between atoms: _480  and  _483
REMARK  205  A    between atoms: _483  and  _484
REMARK  206  A    between atoms: _484  and  _485
REMARK  207  A    between atoms: _485  and  _486
REMARK  208  A    between atoms: _486  and  _487
REMARK  209  A    between atoms: _491  and  _493
REMARK  210  A    between atoms: _493  and  _494
REMARK  211  A    between atoms: _493  and  _496
REMARK  212  A    between atoms: _499  and  _501
REMARK  213  A    between atoms: _501  and  _502
REMARK  214  A    between atoms: _501  and  _504
REMARK  215  A    between atoms: _504  and  _505
REMARK                            x       y       z     vdW  Elec       q    Type
REMARK                         _______ _______ _______ _____ _____    ______ ____
ROOT
ATOM      1  O   HOH     1       3.854  34.439  27.439  0.00  0.00    +0.000 OA
ENDROOT
TORSDOF 0
REMARK  Name = ../refined-set-2016/3qdd/3qdd_pocket.pdb
REMARK  215 active torsions:
REMARK  status: ('A' for Active; 'I' for Inactive)
REMARK    1  A    between atoms: _1  and  _3
REMARK    2  A    between atoms: _3  and  _4
REMARK    3  A    between atoms: _3  and  _6
REMARK    4  A    between atoms: _6  and  _7
REMARK    5  A    between atoms: _13  and  _15
REMARK    6  A    between atoms: _15  and  _16
REMARK    7  A    between atoms: _15  and  _18
REMARK    8  A    between atoms: _18  and  _19
REMARK    9  A    between atoms: _22  and  _24
REMARK   10  A    between atoms: _24  and  _25
REMARK   11  A    between atoms: _24  and  _27
REMARK   12  A    between atoms: _27  and  _28
REMARK   13  A    between atoms: _28  and  _29
REMARK   14  A    between atoms: _31  and  _33
REMARK   15  A    between atoms: _33  and  _34
REMARK   16  A    between atoms: _33  and  _36
REMARK   17  A    between atoms: _36  and  _37
REMARK   18  A    between atoms: _37  and  _38
REMARK   19  A    between atoms: _41  and  _43
REMARK   20  A    between atoms: _43  and  _44
REMARK   21  A    between atoms: _43  and  _46
REMARK   22  A    between atoms: _46  and  _47
REMARK   23  A    between atoms: _50  and  _52
REMARK   24  A    between atoms: _52  and  _53
REMARK   25  A    between atoms: _52  and  _55
REMARK   26  A    between atoms: _55  and  _56
REMARK   27  A    between atoms: _59  and  _61
REMARK   28  A    between atoms: _61  and  _62
REMARK   29  A    between atoms: _61  and  _64
REMARK   30  A    between atoms: _64  and  _65
REMARK   31  A    between atoms: _67  and  _69
REMARK   32  A    between atoms: _69  and  _70
REMARK   33  A    between atoms: _69  and  _72
REMARK   34  A    between atoms: _72  and  _73
REMARK   35  A    between atoms: _78  and  _80
REMARK   36  A    between atoms: _80  and  _81
REMARK   37  A    between atoms: _80  and  _83
REMARK   38  A    between atoms: _83  and  _84
REMARK   39  A    between atoms: _86  and  _88
REMARK   40  A    between atoms: _88  and  _89
REMARK   41  A    between atoms: _88  and  _91
REMARK   42  A    between atoms: _91  and  _92
REMARK   43  A    between atoms: _94  and  _96
REMARK   44  A    between atoms: _96  and  _97
REMARK   45  A    between atoms: _96  and  _99
REMARK   46  A    between atoms: _99  and  _100
REMARK   47  A    between atoms: _103  and  _105
REMARK   48  A    between atoms: _105  and  _106
REMARK   49  A    between atoms: _109  and  _111
REMARK   50  A    between atoms: _111  and  _112
REMARK   51  A    between atoms: _111  and  _114
REMARK   52  A    between atoms: _114  and  _115
REMARK   53  A    between atoms: _118  and  _120
REMARK   54  A    between atoms: _120  and  _121
REMARK   55  A    between atoms: _120  and  _123
REMARK   56  A    between atoms: _123  and  _124
REMARK   57  A    between atoms: _124  and  _125
REMARK   58  A    between atoms: _125  and  _126
REMARK   59  A    between atoms: _126  and  _127
REMARK   60  A    between atoms: _131  and  _133
REMARK   61  A    between atoms: _133  and  _134
REMARK   62  A    between atoms: _133  and  _136
REMARK   63  A    between atoms: _136  and  _137
REMARK   64  A    between atoms: _140  and  _142
REMARK   65  A    between atoms: _142  and  _143
REMARK   66  A    between atoms: _142  and  _145
REMARK   67  A    between atoms: _145  and  _146
REMARK   68  A    between atoms: _149  and  _151
REMARK   69  A    between atoms: _151  and  _152
REMARK   70  A    between atoms: _151  and  _154
REMARK   71  A    between atoms: _157  and  _159
REMARK   72  A    between atoms: _159  and  _160
REMARK   73  A    between atoms: _159  and  _162
REMARK   74  A    between atoms: _162  and  _163
REMARK   75  A    between atoms: _166  and  _168
REMARK   76  A    between atoms: _168  and  _169
REMARK   77  A    between atoms: _168  and  _171
REMARK   78  A    between atoms: _171  and  _172
REMARK   79  A    between atoms: _175  and  _177
REMARK   80  A    between atoms: _177  and  _178
REMARK   81  A    between atoms: _180  and  _182
REMARK   82  A    between atoms: _182  and  _183
REMARK   83  A    between atoms: _182  and  _185
REMARK   84  A    between atoms: _185  and  _186
REMARK   85  A    between atoms: _189  and  _191
REMARK   86  A    between atoms: _191  and  _192
REMARK   87  A    between atoms: _194  and  _196
REMARK   88  A    between atoms: _196  and  _197
REMARK   89  A    between atoms: _196  and  _199
REMARK   90  A    between atoms: _199  and  _200
REMARK   91  A    between atoms: _200  and  _201
REMARK   92  A    between atoms: _203  and  _205
REMARK   93  A    between atoms: _205  and  _206
REMARK   94  A    between atoms: _205  and  _208
REMARK   95  A    between atoms: _208  and  _209
REMARK   96  A    between atoms: _212  and  _214
REMARK   97  A    between atoms: _214  and  _215
REMARK   98  A    between atoms: _214  and  _217
REMARK   99  A    between atoms: _217  and  _218
REMARK  100  A    between atoms: _221  and  _223
REMARK  101  A    between atoms: _223  and  _224
REMARK  102  A    between atoms: _223  and  _226
REMARK  103  A    between atoms: _226  and  _227
REMARK  104  A    between atoms: _230  and  _232
REMARK  105  A    between atoms: _232  and  _233
REMARK  106  A    between atoms: _232  and  _235
REMARK  107  A    between atoms: _235  and  _236
REMARK  108  A    between atoms: _239  and  _241
REMARK  109  A    between atoms: _241  and  _242
REMARK  110  A    between atoms: _241  and  _244
REMARK  111  A    between atoms: _244  and  _245
REMARK  112  A    between atoms: _250  and  _252
REMARK  113  A    between atoms: _252  and  _253
REMARK  114  A    between atoms: _252  and  _255
REMARK  115  A    between atoms: _255  and  _256
REMARK  116  A    between atoms: _259  and  _261
REMARK  117  A    between atoms: _261  and  _262
REMARK  118  A    between atoms: _264  and  _266
REMARK  119  A    between atoms: _266  and  _267
REMARK  120  A    between atoms: _270  and  _272
REMARK  121  A    between atoms: _272  and  _273
REMARK  122  A    between atoms: _275  and  _277
REMARK  123  A    between atoms: _277  and  _278
REMARK  124  A    between atoms: _277  and  _280
REMARK  125  A    between atoms: _283  and  _285
REMARK  126  A    between atoms: _285  and  _286
REMARK  127  A    between atoms: _288  and  _290
REMARK  128  A    between atoms: _290  and  _291
REMARK  129  A    between atoms: _290  and  _293
REMARK  130  A    between atoms: _293  and  _294
REMARK  131  A    between atoms: _300  and  _302
REMARK  132  A    between atoms: _302  and  _303
REMARK  133  A    between atoms: _302  and  _305
REMARK  134  A    between atoms: _305  and  _306
REMARK  135  A    between atoms: _311  and  _312
REMARK  136  A    between atoms: _314  and  _316
REMARK  137  A    between atoms: _316  and  _317
REMARK  138  A    between atoms: _316  and  _319
REMARK  139  A    between atoms: _319  and  _320
REMARK  140  A    between atoms: _325  and  _326
REMARK  141  A    between atoms: _328  and  _330
REMARK  142  A    between atoms: _330  and  _331
REMARK  143  A    between atoms: _330  and  _333
REMARK  144  A    between atoms: _336  and  _338
REMARK  145  A    between atoms: _338  and  _339
REMARK  146  A    between atoms: _338  and  _341
REMARK  147  A    between atoms: _341  and  _342
REMARK  148  A    between atoms: _345  and  _347
REMARK  149  A    between atoms: _347  and  _348
REMARK  150  A    between atoms: _347  and  _350
REMARK  151  A    between atoms: _353  and  _355
REMARK  152  A    between atoms: _355  and  _356
REMARK  153  A    between atoms: _355  and  _358
REMARK  154  A    between atoms: _358  and  _359
REMARK  155  A    between atoms: _362  and  _364
REMARK  156  A    between atoms: _364  and  _365
REMARK  157  A    between atoms: _364  and  _367
REMARK  158  A    between atoms: _367  and  _368
REMARK  159  A    between atoms: _371  and  _373
REMARK  160  A    between atoms: _373  and  _374
REMARK  161  A    between atoms: _373  and  _376
REMARK  162  A    between atoms: _376  and  _377
REMARK  163  A    between atoms: _377  and  _378
REMARK  164  A    between atoms: _378  and  _379
REMARK  165  A    between atoms: _379  and  _380
REMARK  166  A    between atoms: _384  and  _386
REMARK  167  A    between atoms: _386  and  _387
REMARK  168  A    between atoms: _386  and  _389
REMARK  169  A    between atoms: _389  and  _390
REMARK  170  A    between atoms: _395  and  _397
REMARK  171  A    between atoms: _397  and  _398
REMARK  172  A    between atoms: _401  and  _403
REMARK  173  A    between atoms: _403  and  _404
REMARK  174  A    between atoms: _403  and  _406
REMARK  175  A    between atoms: _406  and  _407
REMARK  176  A    between atoms: _417  and  _419
REMARK  177  A    between atoms: _419  and  _420
REMARK  178  A    between atoms: _419  and  _422
REMARK  179  A    between atoms: _422  and  _423
REMARK  180  A    between atoms: _423  and  _424
REMARK  181  A    between atoms: _427  and  _429
REMARK  182  A    between atoms: _429  and  _430
REMARK  183  A    between atoms: _429  and  _432
REMARK  184  A    between atoms: _432  and  _433
REMARK  185  A    between atoms: _435  and  _437
REMARK  186  A    between atoms: _437  and  _438
REMARK  187  A    between atoms: _437  and  _440
REMARK  188  A    between atoms: _440  and  _441
REMARK  189  A    between atoms: _447  and  _449
REMARK  190  A    between atoms: _449  and  _450
REMARK  191  A    between atoms: _449  and  _452
REMARK  192  A    between atoms: _452  and  _453
REMARK  193  A    between atoms: _456  and  _458
REMARK  194  A    between atoms: _458  and  _459
REMARK  195  A    between atoms: _458  and  _461
REMARK  196  A    between atoms: _464  and  _466
REMARK  197  A    between atoms: _466  and  _467
REMARK  198  A    between atoms: _469  and  _471
REMARK  199  A    between atoms: _471  and  _472
REMARK  200  A    between atoms: _471  and  _474
REMARK  201  A    between atoms: _474  and  _475
REMARK  202  A    between atoms: _478  and  _480
REMARK  203  A    between atoms: _480  and  _481
REMARK  204  A    between atoms: _480  and  _483
REMARK  205  A    between atoms: _483  and  _484
REMARK  206  A    between atoms: _484  and  _485
REMARK  207  A    between atoms: _485  and  _486
REMARK  208  A    between atoms: _486  and  _487
REMARK  209  A    between atoms: _491  and  _493
REMARK  210  A    between atoms: _493  and  _494
REMARK  211  A    between atoms: _493  and  _496
REMARK  212  A    between atoms: _499  and  _501
REMARK  213  A    between atoms: _501  and  _502
REMARK  214  A    between atoms: _501  and  _504
REMARK  215  A    between atoms: _504  and  _505
REMARK                            x       y       z     vdW  Elec       q    Type
REMARK                         _______ _______ _______ _____ _____    ______ ____
ROOT
ATOM      1  O   HOH     1      -9.735  29.449  27.292  0.00  0.00    +0.000 OA
ENDROOT
TORSDOF 0
REMARK  Name = ../refined-set-2016/3qdd/3qdd_pocket.pdb
REMARK  215 active torsions:
REMARK  status: ('A' for Active; 'I' for Inactive)
REMARK    1  A    between atoms: _1  and  _3
REMARK    2  A    between atoms: _3  and  _4
REMARK    3  A    between atoms: _3  and  _6
REMARK    4  A    between atoms: _6  and  _7
REMARK    5  A    between atoms: _13  and  _15
REMARK    6  A    between atoms: _15  and  _16
REMARK    7  A    between atoms: _15  and  _18
REMARK    8  A    between atoms: _18  and  _19
REMARK    9  A    between atoms: _22  and  _24
REMARK   10  A    between atoms: _24  and  _25
REMARK   11  A    between atoms: _24  and  _27
REMARK   12  A    between atoms: _27  and  _28
REMARK   13  A    between atoms: _28  and  _29
REMARK   14  A    between atoms: _31  and  _33
REMARK   15  A    between atoms: _33  and  _34
REMARK   16  A    between atoms: _33  and  _36
REMARK   17  A    between atoms: _36  and  _37
REMARK   18  A    between atoms: _37  and  _38
REMARK   19  A    between atoms: _41  and  _43
REMARK   20  A    between atoms: _43  and  _44
REMARK   21  A    between atoms: _43  and  _46
REMARK   22  A    between atoms: _46  and  _47
REMARK   23  A    between atoms: _50  and  _52
REMARK   24  A    between atoms: _52  and  _53
REMARK   25  A    between atoms: _52  and  _55
REMARK   26  A    between atoms: _55  and  _56
REMARK   27  A    between atoms: _59  and  _61
REMARK   28  A    between atoms: _61  and  _62
REMARK   29  A    between atoms: _61  and  _64
REMARK   30  A    between atoms: _64  and  _65
REMARK   31  A    between atoms: _67  and  _69
REMARK   32  A    between atoms: _69  and  _70
REMARK   33  A    between atoms: _69  and  _72
REMARK   34  A    between atoms: _72  and  _73
REMARK   35  A    between atoms: _78  and  _80
REMARK   36  A    between atoms: _80  and  _81
REMARK   37  A    between atoms: _80  and  _83
REMARK   38  A    between atoms: _83  and  _84
REMARK   39  A    between atoms: _86  and  _88
REMARK   40  A    between atoms: _88  and  _89
REMARK   41  A    between atoms: _88  and  _91
REMARK   42  A    between atoms: _91  and  _92
REMARK   43  A    between atoms: _94  and  _96
REMARK   44  A    between atoms: _96  and  _97
REMARK   45  A    between atoms: _96  and  _99
REMARK   46  A    between atoms: _99  and  _100
REMARK   47  A    between atoms: _103  and  _105
REMARK   48  A    between atoms: _105  and  _106
REMARK   49  A    between atoms: _109  and  _111
REMARK   50  A    between atoms: _111  and  _112
REMARK   51  A    between atoms: _111  and  _114
REMARK   52  A    between atoms: _114  and  _115
REMARK   53  A    between atoms: _118  and  _120
REMARK   54  A    between atoms: _120  and  _121
REMARK   55  A    between atoms: _120  and  _123
REMARK   56  A    between atoms: _123  and  _124
REMARK   57  A    between atoms: _124  and  _125
REMARK   58  A    between atoms: _125  and  _126
REMARK   59  A    between atoms: _126  and  _127
REMARK   60  A    between atoms: _131  and  _133
REMARK   61  A    between atoms: _133  and  _134
REMARK   62  A    between atoms: _133  and  _136
REMARK   63  A    between atoms: _136  and  _137
REMARK   64  A    between atoms: _140  and  _142
REMARK   65  A    between atoms: _142  and  _143
REMARK   66  A    between atoms: _142  and  _145
REMARK   67  A    between atoms: _145  and  _146
REMARK   68  A    between atoms: _149  and  _151
REMARK   69  A    between atoms: _151  and  _152
REMARK   70  A    between atoms: _151  and  _154
REMARK   71  A    between atoms: _157  and  _159
REMARK   72  A    between atoms: _159  and  _160
REMARK   73  A    between atoms: _159  and  _162
REMARK   74  A    between atoms: _162  and  _163
REMARK   75  A    between atoms: _166  and  _168
REMARK   76  A    between atoms: _168  and  _169
REMARK   77  A    between atoms: _168  and  _171
REMARK   78  A    between atoms: _171  and  _172
REMARK   79  A    between atoms: _175  and  _177
REMARK   80  A    between atoms: _177  and  _178
REMARK   81  A    between atoms: _180  and  _182
REMARK   82  A    between atoms: _182  and  _183
REMARK   83  A    between atoms: _182  and  _185
REMARK   84  A    between atoms: _185  and  _186
REMARK   85  A    between atoms: _189  and  _191
REMARK   86  A    between atoms: _191  and  _192
REMARK   87  A    between atoms: _194  and  _196
REMARK   88  A    between atoms: _196  and  _197
REMARK   89  A    between atoms: _196  and  _199
REMARK   90  A    between atoms: _199  and  _200
REMARK   91  A    between atoms: _200  and  _201
REMARK   92  A    between atoms: _203  and  _205
REMARK   93  A    between atoms: _205  and  _206
REMARK   94  A    between atoms: _205  and  _208
REMARK   95  A    between atoms: _208  and  _209
REMARK   96  A    between atoms: _212  and  _214
REMARK   97  A    between atoms: _214  and  _215
REMARK   98  A    between atoms: _214  and  _217
REMARK   99  A    between atoms: _217  and  _218
REMARK  100  A    between atoms: _221  and  _223
REMARK  101  A    between atoms: _223  and  _224
REMARK  102  A    between atoms: _223  and  _226
REMARK  103  A    between atoms: _226  and  _227
REMARK  104  A    between atoms: _230  and  _232
REMARK  105  A    between atoms: _232  and  _233
REMARK  106  A    between atoms: _232  and  _235
REMARK  107  A    between atoms: _235  and  _236
REMARK  108  A    between atoms: _239  and  _241
REMARK  109  A    between atoms: _241  and  _242
REMARK  110  A    between atoms: _241  and  _244
REMARK  111  A    between atoms: _244  and  _245
REMARK  112  A    between atoms: _250  and  _252
REMARK  113  A    between atoms: _252  and  _253
REMARK  114  A    between atoms: _252  and  _255
REMARK  115  A    between atoms: _255  and  _256
REMARK  116  A    between atoms: _259  and  _261
REMARK  117  A    between atoms: _261  and  _262
REMARK  118  A    between atoms: _264  and  _266
REMARK  119  A    between atoms: _266  and  _267
REMARK  120  A    between atoms: _270  and  _272
REMARK  121  A    between atoms: _272  and  _273
REMARK  122  A    between atoms: _275  and  _277
REMARK  123  A    between atoms: _277  and  _278
REMARK  124  A    between atoms: _277  and  _280
REMARK  125  A    between atoms: _283  and  _285
REMARK  126  A    between atoms: _285  and  _286
REMARK  127  A    between atoms: _288  and  _290
REMARK  128  A    between atoms: _290  and  _291
REMARK  129  A    between atoms: _290  and  _293
REMARK  130  A    between atoms: _293  and  _294
REMARK  131  A    between atoms: _300  and  _302
REMARK  132  A    between atoms: _302  and  _303
REMARK  133  A    between atoms: _302  and  _305
REMARK  134  A    between atoms: _305  and  _306
REMARK  135  A    between atoms: _311  and  _312
REMARK  136  A    between atoms: _314  and  _316
REMARK  137  A    between atoms: _316  and  _317
REMARK  138  A    between atoms: _316  and  _319
REMARK  139  A    between atoms: _319  and  _320
REMARK  140  A    between atoms: _325  and  _326
REMARK  141  A    between atoms: _328  and  _330
REMARK  142  A    between atoms: _330  and  _331
REMARK  143  A    between atoms: _330  and  _333
REMARK  144  A    between atoms: _336  and  _338
REMARK  145  A    between atoms: _338  and  _339
REMARK  146  A    between atoms: _338  and  _341
REMARK  147  A    between atoms: _341  and  _342
REMARK  148  A    between atoms: _345  and  _347
REMARK  149  A    between atoms: _347  and  _348
REMARK  150  A    between atoms: _347  and  _350
REMARK  151  A    between atoms: _353  and  _355
REMARK  152  A    between atoms: _355  and  _356
REMARK  153  A    between atoms: _355  and  _358
REMARK  154  A    between atoms: _358  and  _359
REMARK  155  A    between atoms: _362  and  _364
REMARK  156  A    between atoms: _364  and  _365
REMARK  157  A    between atoms: _364  and  _367
REMARK  158  A    between atoms: _367  and  _368
REMARK  159  A    between atoms: _371  and  _373
REMARK  160  A    between atoms: _373  and  _374
REMARK  161  A    between atoms: _373  and  _376
REMARK  162  A    between atoms: _376  and  _377
REMARK  163  A    between atoms: _377  and  _378
REMARK  164  A    between atoms: _378  and  _379
REMARK  165  A    between atoms: _379  and  _380
REMARK  166  A    between atoms: _384  and  _386
REMARK  167  A    between atoms: _386  and  _387
REMARK  168  A    between atoms: _386  and  _389
REMARK  169  A    between atoms: _389  and  _390
REMARK  170  A    between atoms: _395  and  _397
REMARK  171  A    between atoms: _397  and  _398
REMARK  172  A    between atoms: _401  and  _403
REMARK  173  A    between atoms: _403  and  _404
REMARK  174  A    between atoms: _403  and  _406
REMARK  175  A    between atoms: _406  and  _407
REMARK  176  A    between atoms: _417  and  _419
REMARK  177  A    between atoms: _419  and  _420
REMARK  178  A    between atoms: _419  and  _422
REMARK  179  A    between atoms: _422  and  _423
REMARK  180  A    between atoms: _423  and  _424
REMARK  181  A    between atoms: _427  and  _429
REMARK  182  A    between atoms: _429  and  _430
REMARK  183  A    between atoms: _429  and  _432
REMARK  184  A    between atoms: _432  and  _433
REMARK  185  A    between atoms: _435  and  _437
REMARK  186  A    between atoms: _437  and  _438
REMARK  187  A    between atoms: _437  and  _440
REMARK  188  A    between atoms: _440  and  _441
REMARK  189  A    between atoms: _447  and  _449
REMARK  190  A    between atoms: _449  and  _450
REMARK  191  A    between atoms: _449  and  _452
REMARK  192  A    between atoms: _452  and  _453
REMARK  193  A    between atoms: _456  and  _458
REMARK  194  A    between atoms: _458  and  _459
REMARK  195  A    between atoms: _458  and  _461
REMARK  196  A    between atoms: _464  and  _466
REMARK  197  A    between atoms: _466  and  _467
REMARK  198  A    between atoms: _469  and  _471
REMARK  199  A    between atoms: _471  and  _472
REMARK  200  A    between atoms: _471  and  _474
REMARK  201  A    between atoms: _474  and  _475
REMARK  202  A    between atoms: _478  and  _480
REMARK  203  A    between atoms: _480  and  _481
REMARK  204  A    between atoms: _480  and  _483
REMARK  205  A    between atoms: _483  and  _484
REMARK  206  A    between atoms: _484  and  _485
REMARK  207  A    between atoms: _485  and  _486
REMARK  208  A    between atoms: _486  and  _487
REMARK  209  A    between atoms: _491  and  _493
REMARK  210  A    between atoms: _493  and  _494
REMARK  211  A    between atoms: _493  and  _496
REMARK  212  A    between atoms: _499  and  _501
REMARK  213  A    between atoms: _501  and  _502
REMARK  214  A    between atoms: _501  and  _504
REMARK  215  A    between atoms: _504  and  _505
REMARK                            x       y       z     vdW  Elec       q    Type
REMARK                         _______ _______ _______ _____ _____    ______ ____
ROOT
ATOM      1  O   HOH     1     -10.296  32.779  29.062  0.00  0.00    +0.000 OA
ENDROOT
TORSDOF 0
REMARK  Name = ../refined-set-2016/3qdd/3qdd_pocket.pdb
REMARK  215 active torsions:
REMARK  status: ('A' for Active; 'I' for Inactive)
REMARK    1  A    between atoms: _1  and  _3
REMARK    2  A    between atoms: _3  and  _4
REMARK    3  A    between atoms: _3  and  _6
REMARK    4  A    between atoms: _6  and  _7
REMARK    5  A    between atoms: _13  and  _15
REMARK    6  A    between atoms: _15  and  _16
REMARK    7  A    between atoms: _15  and  _18
REMARK    8  A    between atoms: _18  and  _19
REMARK    9  A    between atoms: _22  and  _24
REMARK   10  A    between atoms: _24  and  _25
REMARK   11  A    between atoms: _24  and  _27
REMARK   12  A    between atoms: _27  and  _28
REMARK   13  A    between atoms: _28  and  _29
REMARK   14  A    between atoms: _31  and  _33
REMARK   15  A    between atoms: _33  and  _34
REMARK   16  A    between atoms: _33  and  _36
REMARK   17  A    between atoms: _36  and  _37
REMARK   18  A    between atoms: _37  and  _38
REMARK   19  A    between atoms: _41  and  _43
REMARK   20  A    between atoms: _43  and  _44
REMARK   21  A    between atoms: _43  and  _46
REMARK   22  A    between atoms: _46  and  _47
REMARK   23  A    between atoms: _50  and  _52
REMARK   24  A    between atoms: _52  and  _53
REMARK   25  A    between atoms: _52  and  _55
REMARK   26  A    between atoms: _55  and  _56
REMARK   27  A    between atoms: _59  and  _61
REMARK   28  A    between atoms: _61  and  _62
REMARK   29  A    between atoms: _61  and  _64
REMARK   30  A    between atoms: _64  and  _65
REMARK   31  A    between atoms: _67  and  _69
REMARK   32  A    between atoms: _69  and  _70
REMARK   33  A    between atoms: _69  and  _72
REMARK   34  A    between atoms: _72  and  _73
REMARK   35  A    between atoms: _78  and  _80
REMARK   36  A    between atoms: _80  and  _81
REMARK   37  A    between atoms: _80  and  _83
REMARK   38  A    between atoms: _83  and  _84
REMARK   39  A    between atoms: _86  and  _88
REMARK   40  A    between atoms: _88  and  _89
REMARK   41  A    between atoms: _88  and  _91
REMARK   42  A    between atoms: _91  and  _92
REMARK   43  A    between atoms: _94  and  _96
REMARK   44  A    between atoms: _96  and  _97
REMARK   45  A    between atoms: _96  and  _99
REMARK   46  A    between atoms: _99  and  _100
REMARK   47  A    between atoms: _103  and  _105
REMARK   48  A    between atoms: _105  and  _106
REMARK   49  A    between atoms: _109  and  _111
REMARK   50  A    between atoms: _111  and  _112
REMARK   51  A    between atoms: _111  and  _114
REMARK   52  A    between atoms: _114  and  _115
REMARK   53  A    between atoms: _118  and  _120
REMARK   54  A    between atoms: _120  and  _121
REMARK   55  A    between atoms: _120  and  _123
REMARK   56  A    between atoms: _123  and  _124
REMARK   57  A    between atoms: _124  and  _125
REMARK   58  A    between atoms: _125  and  _126
REMARK   59  A    between atoms: _126  and  _127
REMARK   60  A    between atoms: _131  and  _133
REMARK   61  A    between atoms: _133  and  _134
REMARK   62  A    between atoms: _133  and  _136
REMARK   63  A    between atoms: _136  and  _137
REMARK   64  A    between atoms: _140  and  _142
REMARK   65  A    between atoms: _142  and  _143
REMARK   66  A    between atoms: _142  and  _145
REMARK   67  A    between atoms: _145  and  _146
REMARK   68  A    between atoms: _149  and  _151
REMARK   69  A    between atoms: _151  and  _152
REMARK   70  A    between atoms: _151  and  _154
REMARK   71  A    between atoms: _157  and  _159
REMARK   72  A    between atoms: _159  and  _160
REMARK   73  A    between atoms: _159  and  _162
REMARK   74  A    between atoms: _162  and  _163
REMARK   75  A    between atoms: _166  and  _168
REMARK   76  A    between atoms: _168  and  _169
REMARK   77  A    between atoms: _168  and  _171
REMARK   78  A    between atoms: _171  and  _172
REMARK   79  A    between atoms: _175  and  _177
REMARK   80  A    between atoms: _177  and  _178
REMARK   81  A    between atoms: _180  and  _182
REMARK   82  A    between atoms: _182  and  _183
REMARK   83  A    between atoms: _182  and  _185
REMARK   84  A    between atoms: _185  and  _186
REMARK   85  A    between atoms: _189  and  _191
REMARK   86  A    between atoms: _191  and  _192
REMARK   87  A    between atoms: _194  and  _196
REMARK   88  A    between atoms: _196  and  _197
REMARK   89  A    between atoms: _196  and  _199
REMARK   90  A    between atoms: _199  and  _200
REMARK   91  A    between atoms: _200  and  _201
REMARK   92  A    between atoms: _203  and  _205
REMARK   93  A    between atoms: _205  and  _206
REMARK   94  A    between atoms: _205  and  _208
REMARK   95  A    between atoms: _208  and  _209
REMARK   96  A    between atoms: _212  and  _214
REMARK   97  A    between atoms: _214  and  _215
REMARK   98  A    between atoms: _214  and  _217
REMARK   99  A    between atoms: _217  and  _218
REMARK  100  A    between atoms: _221  and  _223
REMARK  101  A    between atoms: _223  and  _224
REMARK  102  A    between atoms: _223  and  _226
REMARK  103  A    between atoms: _226  and  _227
REMARK  104  A    between atoms: _230  and  _232
REMARK  105  A    between atoms: _232  and  _233
REMARK  106  A    between atoms: _232  and  _235
REMARK  107  A    between atoms: _235  and  _236
REMARK  108  A    between atoms: _239  and  _241
REMARK  109  A    between atoms: _241  and  _242
REMARK  110  A    between atoms: _241  and  _244
REMARK  111  A    between atoms: _244  and  _245
REMARK  112  A    between atoms: _250  and  _252
REMARK  113  A    between atoms: _252  and  _253
REMARK  114  A    between atoms: _252  and  _255
REMARK  115  A    between atoms: _255  and  _256
REMARK  116  A    between atoms: _259  and  _261
REMARK  117  A    between atoms: _261  and  _262
REMARK  118  A    between atoms: _264  and  _266
REMARK  119  A    between atoms: _266  and  _267
REMARK  120  A    between atoms: _270  and  _272
REMARK  121  A    between atoms: _272  and  _273
REMARK  122  A    between atoms: _275  and  _277
REMARK  123  A    between atoms: _277  and  _278
REMARK  124  A    between atoms: _277  and  _280
REMARK  125  A    between atoms: _283  and  _285
REMARK  126  A    between atoms: _285  and  _286
REMARK  127  A    between atoms: _288  and  _290
REMARK  128  A    between atoms: _290  and  _291
REMARK  129  A    between atoms: _290  and  _293
REMARK  130  A    between atoms: _293  and  _294
REMARK  131  A    between atoms: _300  and  _302
REMARK  132  A    between atoms: _302  and  _303
REMARK  133  A    between atoms: _302  and  _305
REMARK  134  A    between atoms: _305  and  _306
REMARK  135  A    between atoms: _311  and  _312
REMARK  136  A    between atoms: _314  and  _316
REMARK  137  A    between atoms: _316  and  _317
REMARK  138  A    between atoms: _316  and  _319
REMARK  139  A    between atoms: _319  and  _320
REMARK  140  A    between atoms: _325  and  _326
REMARK  141  A    between atoms: _328  and  _330
REMARK  142  A    between atoms: _330  and  _331
REMARK  143  A    between atoms: _330  and  _333
REMARK  144  A    between atoms: _336  and  _338
REMARK  145  A    between atoms: _338  and  _339
REMARK  146  A    between atoms: _338  and  _341
REMARK  147  A    between atoms: _341  and  _342
REMARK  148  A    between atoms: _345  and  _347
REMARK  149  A    between atoms: _347  and  _348
REMARK  150  A    between atoms: _347  and  _350
REMARK  151  A    between atoms: _353  and  _355
REMARK  152  A    between atoms: _355  and  _356
REMARK  153  A    between atoms: _355  and  _358
REMARK  154  A    between atoms: _358  and  _359
REMARK  155  A    between atoms: _362  and  _364
REMARK  156  A    between atoms: _364  and  _365
REMARK  157  A    between atoms: _364  and  _367
REMARK  158  A    between atoms: _367  and  _368
REMARK  159  A    between atoms: _371  and  _373
REMARK  160  A    between atoms: _373  and  _374
REMARK  161  A    between atoms: _373  and  _376
REMARK  162  A    between atoms: _376  and  _377
REMARK  163  A    between atoms: _377  and  _378
REMARK  164  A    between atoms: _378  and  _379
REMARK  165  A    between atoms: _379  and  _380
REMARK  166  A    between atoms: _384  and  _386
REMARK  167  A    between atoms: _386  and  _387
REMARK  168  A    between atoms: _386  and  _389
REMARK  169  A    between atoms: _389  and  _390
REMARK  170  A    between atoms: _395  and  _397
REMARK  171  A    between atoms: _397  and  _398
REMARK  172  A    between atoms: _401  and  _403
REMARK  173  A    between atoms: _403  and  _404
REMARK  174  A    between atoms: _403  and  _406
REMARK  175  A    between atoms: _406  and  _407
REMARK  176  A    between atoms: _417  and  _419
REMARK  177  A    between atoms: _419  and  _420
REMARK  178  A    between atoms: _419  and  _422
REMARK  179  A    between atoms: _422  and  _423
REMARK  180  A    between atoms: _423  and  _424
REMARK  181  A    between atoms: _427  and  _429
REMARK  182  A    between atoms: _429  and  _430
REMARK  183  A    between atoms: _429  and  _432
REMARK  184  A    between atoms: _432  and  _433
REMARK  185  A    between atoms: _435  and  _437
REMARK  186  A    between atoms: _437  and  _438
REMARK  187  A    between atoms: _437  and  _440
REMARK  188  A    between atoms: _440  and  _441
REMARK  189  A    between atoms: _447  and  _449
REMARK  190  A    between atoms: _449  and  _450
REMARK  191  A    between atoms: _449  and  _452
REMARK  192  A    between atoms: _452  and  _453
REMARK  193  A    between atoms: _456  and  _458
REMARK  194  A    between atoms: _458  and  _459
REMARK  195  A    between atoms: _458  and  _461
REMARK  196  A    between atoms: _464  and  _466
REMARK  197  A    between atoms: _466  and  _467
REMARK  198  A    between atoms: _469  and  _471
REMARK  199  A    between atoms: _471  and  _472
REMARK  200  A    between atoms: _471  and  _474
REMARK  201  A    between atoms: _474  and  _475
REMARK  202  A    between atoms: _478  and  _480
REMARK  203  A    between atoms: _480  and  _481
REMARK  204  A    between atoms: _480  and  _483
REMARK  205  A    between atoms: _483  and  _484
REMARK  206  A    between atoms: _484  and  _485
REMARK  207  A    between atoms: _485  and  _486
REMARK  208  A    between atoms: _486  and  _487
REMARK  209  A    between atoms: _491  and  _493
REMARK  210  A    between atoms: _493  and  _494
REMARK  211  A    between atoms: _493  and  _496
REMARK  212  A    between atoms: _499  and  _501
REMARK  213  A    between atoms: _501  and  _502
REMARK  214  A    between atoms: _501  and  _504
REMARK  215  A    between atoms: _504  and  _505
REMARK                            x       y       z     vdW  Elec       q    Type
REMARK                         _______ _______ _______ _____ _____    ______ ____
ROOT
ATOM      1  O   HOH     1      -4.495  38.011  24.140  0.00  0.00    +0.000 OA
ENDROOT
TORSDOF 0
REMARK  Name = ../refined-set-2016/3qdd/3qdd_pocket.pdb
REMARK  215 active torsions:
REMARK  status: ('A' for Active; 'I' for Inactive)
REMARK    1  A    between atoms: _1  and  _3
REMARK    2  A    between atoms: _3  and  _4
REMARK    3  A    between atoms: _3  and  _6
REMARK    4  A    between atoms: _6  and  _7
REMARK    5  A    between atoms: _13  and  _15
REMARK    6  A    between atoms: _15  and  _16
REMARK    7  A    between atoms: _15  and  _18
REMARK    8  A    between atoms: _18  and  _19
REMARK    9  A    between atoms: _22  and  _24
REMARK   10  A    between atoms: _24  and  _25
REMARK   11  A    between atoms: _24  and  _27
REMARK   12  A    between atoms: _27  and  _28
REMARK   13  A    between atoms: _28  and  _29
REMARK   14  A    between atoms: _31  and  _33
REMARK   15  A    between atoms: _33  and  _34
REMARK   16  A    between atoms: _33  and  _36
REMARK   17  A    between atoms: _36  and  _37
REMARK   18  A    between atoms: _37  and  _38
REMARK   19  A    between atoms: _41  and  _43
REMARK   20  A    between atoms: _43  and  _44
REMARK   21  A    between atoms: _43  and  _46
REMARK   22  A    between atoms: _46  and  _47
REMARK   23  A    between atoms: _50  and  _52
REMARK   24  A    between atoms: _52  and  _53
REMARK   25  A    between atoms: _52  and  _55
REMARK   26  A    between atoms: _55  and  _56
REMARK   27  A    between atoms: _59  and  _61
REMARK   28  A    between atoms: _61  and  _62
REMARK   29  A    between atoms: _61  and  _64
REMARK   30  A    between atoms: _64  and  _65
REMARK   31  A    between atoms: _67  and  _69
REMARK   32  A    between atoms: _69  and  _70
REMARK   33  A    between atoms: _69  and  _72
REMARK   34  A    between atoms: _72  and  _73
REMARK   35  A    between atoms: _78  and  _80
REMARK   36  A    between atoms: _80  and  _81
REMARK   37  A    between atoms: _80  and  _83
REMARK   38  A    between atoms: _83  and  _84
REMARK   39  A    between atoms: _86  and  _88
REMARK   40  A    between atoms: _88  and  _89
REMARK   41  A    between atoms: _88  and  _91
REMARK   42  A    between atoms: _91  and  _92
REMARK   43  A    between atoms: _94  and  _96
REMARK   44  A    between atoms: _96  and  _97
REMARK   45  A    between atoms: _96  and  _99
REMARK   46  A    between atoms: _99  and  _100
REMARK   47  A    between atoms: _103  and  _105
REMARK   48  A    between atoms: _105  and  _106
REMARK   49  A    between atoms: _109  and  _111
REMARK   50  A    between atoms: _111  and  _112
REMARK   51  A    between atoms: _111  and  _114
REMARK   52  A    between atoms: _114  and  _115
REMARK   53  A    between atoms: _118  and  _120
REMARK   54  A    between atoms: _120  and  _121
REMARK   55  A    between atoms: _120  and  _123
REMARK   56  A    between atoms: _123  and  _124
REMARK   57  A    between atoms: _124  and  _125
REMARK   58  A    between atoms: _125  and  _126
REMARK   59  A    between atoms: _126  and  _127
REMARK   60  A    between atoms: _131  and  _133
REMARK   61  A    between atoms: _133  and  _134
REMARK   62  A    between atoms: _133  and  _136
REMARK   63  A    between atoms: _136  and  _137
REMARK   64  A    between atoms: _140  and  _142
REMARK   65  A    between atoms: _142  and  _143
REMARK   66  A    between atoms: _142  and  _145
REMARK   67  A    between atoms: _145  and  _146
REMARK   68  A    between atoms: _149  and  _151
REMARK   69  A    between atoms: _151  and  _152
REMARK   70  A    between atoms: _151  and  _154
REMARK   71  A    between atoms: _157  and  _159
REMARK   72  A    between atoms: _159  and  _160
REMARK   73  A    between atoms: _159  and  _162
REMARK   74  A    between atoms: _162  and  _163
REMARK   75  A    between atoms: _166  and  _168
REMARK   76  A    between atoms: _168  and  _169
REMARK   77  A    between atoms: _168  and  _171
REMARK   78  A    between atoms: _171  and  _172
REMARK   79  A    between atoms: _175  and  _177
REMARK   80  A    between atoms: _177  and  _178
REMARK   81  A    between atoms: _180  and  _182
REMARK   82  A    between atoms: _182  and  _183
REMARK   83  A    between atoms: _182  and  _185
REMARK   84  A    between atoms: _185  and  _186
REMARK   85  A    between atoms: _189  and  _191
REMARK   86  A    between atoms: _191  and  _192
REMARK   87  A    between atoms: _194  and  _196
REMARK   88  A    between atoms: _196  and  _197
REMARK   89  A    between atoms: _196  and  _199
REMARK   90  A    between atoms: _199  and  _200
REMARK   91  A    between atoms: _200  and  _201
REMARK   92  A    between atoms: _203  and  _205
REMARK   93  A    between atoms: _205  and  _206
REMARK   94  A    between atoms: _205  and  _208
REMARK   95  A    between atoms: _208  and  _209
REMARK   96  A    between atoms: _212  and  _214
REMARK   97  A    between atoms: _214  and  _215
REMARK   98  A    between atoms: _214  and  _217
REMARK   99  A    between atoms: _217  and  _218
REMARK  100  A    between atoms: _221  and  _223
REMARK  101  A    between atoms: _223  and  _224
REMARK  102  A    between atoms: _223  and  _226
REMARK  103  A    between atoms: _226  and  _227
REMARK  104  A    between atoms: _230  and  _232
REMARK  105  A    between atoms: _232  and  _233
REMARK  106  A    between atoms: _232  and  _235
REMARK  107  A    between atoms: _235  and  _236
REMARK  108  A    between atoms: _239  and  _241
REMARK  109  A    between atoms: _241  and  _242
REMARK  110  A    between atoms: _241  and  _244
REMARK  111  A    between atoms: _244  and  _245
REMARK  112  A    between atoms: _250  and  _252
REMARK  113  A    between atoms: _252  and  _253
REMARK  114  A    between atoms: _252  and  _255
REMARK  115  A    between atoms: _255  and  _256
REMARK  116  A    between atoms: _259  and  _261
REMARK  117  A    between atoms: _261  and  _262
REMARK  118  A    between atoms: _264  and  _266
REMARK  119  A    between atoms: _266  and  _267
REMARK  120  A    between atoms: _270  and  _272
REMARK  121  A    between atoms: _272  and  _273
REMARK  122  A    between atoms: _275  and  _277
REMARK  123  A    between atoms: _277  and  _278
REMARK  124  A    between atoms: _277  and  _280
REMARK  125  A    between atoms: _283  and  _285
REMARK  126  A    between atoms: _285  and  _286
REMARK  127  A    between atoms: _288  and  _290
REMARK  128  A    between atoms: _290  and  _291
REMARK  129  A    between atoms: _290  and  _293
REMARK  130  A    between atoms: _293  and  _294
REMARK  131  A    between atoms: _300  and  _302
REMARK  132  A    between atoms: _302  and  _303
REMARK  133  A    between atoms: _302  and  _305
REMARK  134  A    between atoms: _305  and  _306
REMARK  135  A    between atoms: _311  and  _312
REMARK  136  A    between atoms: _314  and  _316
REMARK  137  A    between atoms: _316  and  _317
REMARK  138  A    between atoms: _316  and  _319
REMARK  139  A    between atoms: _319  and  _320
REMARK  140  A    between atoms: _325  and  _326
REMARK  141  A    between atoms: _328  and  _330
REMARK  142  A    between atoms: _330  and  _331
REMARK  143  A    between atoms: _330  and  _333
REMARK  144  A    between atoms: _336  and  _338
REMARK  145  A    between atoms: _338  and  _339
REMARK  146  A    between atoms: _338  and  _341
REMARK  147  A    between atoms: _341  and  _342
REMARK  148  A    between atoms: _345  and  _347
REMARK  149  A    between atoms: _347  and  _348
REMARK  150  A    between atoms: _347  and  _350
REMARK  151  A    between atoms: _353  and  _355
REMARK  152  A    between atoms: _355  and  _356
REMARK  153  A    between atoms: _355  and  _358
REMARK  154  A    between atoms: _358  and  _359
REMARK  155  A    between atoms: _362  and  _364
REMARK  156  A    between atoms: _364  and  _365
REMARK  157  A    between atoms: _364  and  _367
REMARK  158  A    between atoms: _367  and  _368
REMARK  159  A    between atoms: _371  and  _373
REMARK  160  A    between atoms: _373  and  _374
REMARK  161  A    between atoms: _373  and  _376
REMARK  162  A    between atoms: _376  and  _377
REMARK  163  A    between atoms: _377  and  _378
REMARK  164  A    between atoms: _378  and  _379
REMARK  165  A    between atoms: _379  and  _380
REMARK  166  A    between atoms: _384  and  _386
REMARK  167  A    between atoms: _386  and  _387
REMARK  168  A    between atoms: _386  and  _389
REMARK  169  A    between atoms: _389  and  _390
REMARK  170  A    between atoms: _395  and  _397
REMARK  171  A    between atoms: _397  and  _398
REMARK  172  A    between atoms: _401  and  _403
REMARK  173  A    between atoms: _403  and  _404
REMARK  174  A    between atoms: _403  and  _406
REMARK  175  A    between atoms: _406  and  _407
REMARK  176  A    between atoms: _417  and  _419
REMARK  177  A    between atoms: _419  and  _420
REMARK  178  A    between atoms: _419  and  _422
REMARK  179  A    between atoms: _422  and  _423
REMARK  180  A    between atoms: _423  and  _424
REMARK  181  A    between atoms: _427  and  _429
REMARK  182  A    between atoms: _429  and  _430
REMARK  183  A    between atoms: _429  and  _432
REMARK  184  A    between atoms: _432  and  _433
REMARK  185  A    between atoms: _435  and  _437
REMARK  186  A    between atoms: _437  and  _438
REMARK  187  A    between atoms: _437  and  _440
REMARK  188  A    between atoms: _440  and  _441
REMARK  189  A    between atoms: _447  and  _449
REMARK  190  A    between atoms: _449  and  _450
REMARK  191  A    between atoms: _449  and  _452
REMARK  192  A    between atoms: _452  and  _453
REMARK  193  A    between atoms: _456  and  _458
REMARK  194  A    between atoms: _458  and  _459
REMARK  195  A    between atoms: _458  and  _461
REMARK  196  A    between atoms: _464  and  _466
REMARK  197  A    between atoms: _466  and  _467
REMARK  198  A    between atoms: _469  and  _471
REMARK  199  A    between atoms: _471  and  _472
REMARK  200  A    between atoms: _471  and  _474
REMARK  201  A    between atoms: _474  and  _475
REMARK  202  A    between atoms: _478  and  _480
REMARK  203  A    between atoms: _480  and  _481
REMARK  204  A    between atoms: _480  and  _483
REMARK  205  A    between atoms: _483  and  _484
REMARK  206  A    between atoms: _484  and  _485
REMARK  207  A    between atoms: _485  and  _486
REMARK  208  A    between atoms: _486  and  _487
REMARK  209  A    between atoms: _491  and  _493
REMARK  210  A    between atoms: _493  and  _494
REMARK  211  A    between atoms: _493  and  _496
REMARK  212  A    between atoms: _499  and  _501
REMARK  213  A    between atoms: _501  and  _502
REMARK  214  A    between atoms: _501  and  _504
REMARK  215  A    between atoms: _504  and  _505
REMARK                            x       y       z     vdW  Elec       q    Type
REMARK                         _______ _______ _______ _____ _____    ______ ____
ROOT
ATOM      1  O   HOH     1       4.899  36.859  34.813  0.00  0.00    +0.000 OA
ENDROOT
TORSDOF 0
REMARK  Name = ../refined-set-2016/3qdd/3qdd_pocket.pdb
REMARK  215 active torsions:
REMARK  status: ('A' for Active; 'I' for Inactive)
REMARK    1  A    between atoms: _1  and  _3
REMARK    2  A    between atoms: _3  and  _4
REMARK    3  A    between atoms: _3  and  _6
REMARK    4  A    between atoms: _6  and  _7
REMARK    5  A    between atoms: _13  and  _15
REMARK    6  A    between atoms: _15  and  _16
REMARK    7  A    between atoms: _15  and  _18
REMARK    8  A    between atoms: _18  and  _19
REMARK    9  A    between atoms: _22  and  _24
REMARK   10  A    between atoms: _24  and  _25
REMARK   11  A    between atoms: _24  and  _27
REMARK   12  A    between atoms: _27  and  _28
REMARK   13  A    between atoms: _28  and  _29
REMARK   14  A    between atoms: _31  and  _33
REMARK   15  A    between atoms: _33  and  _34
REMARK   16  A    between atoms: _33  and  _36
REMARK   17  A    between atoms: _36  and  _37
REMARK   18  A    between atoms: _37  and  _38
REMARK   19  A    between atoms: _41  and  _43
REMARK   20  A    between atoms: _43  and  _44
REMARK   21  A    between atoms: _43  and  _46
REMARK   22  A    between atoms: _46  and  _47
REMARK   23  A    between atoms: _50  and  _52
REMARK   24  A    between atoms: _52  and  _53
REMARK   25  A    between atoms: _52  and  _55
REMARK   26  A    between atoms: _55  and  _56
REMARK   27  A    between atoms: _59  and  _61
REMARK   28  A    between atoms: _61  and  _62
REMARK   29  A    between atoms: _61  and  _64
REMARK   30  A    between atoms: _64  and  _65
REMARK   31  A    between atoms: _67  and  _69
REMARK   32  A    between atoms: _69  and  _70
REMARK   33  A    between atoms: _69  and  _72
REMARK   34  A    between atoms: _72  and  _73
REMARK   35  A    between atoms: _78  and  _80
REMARK   36  A    between atoms: _80  and  _81
REMARK   37  A    between atoms: _80  and  _83
REMARK   38  A    between atoms: _83  and  _84
REMARK   39  A    between atoms: _86  and  _88
REMARK   40  A    between atoms: _88  and  _89
REMARK   41  A    between atoms: _88  and  _91
REMARK   42  A    between atoms: _91  and  _92
REMARK   43  A    between atoms: _94  and  _96
REMARK   44  A    between atoms: _96  and  _97
REMARK   45  A    between atoms: _96  and  _99
REMARK   46  A    between atoms: _99  and  _100
REMARK   47  A    between atoms: _103  and  _105
REMARK   48  A    between atoms: _105  and  _106
REMARK   49  A    between atoms: _109  and  _111
REMARK   50  A    between atoms: _111  and  _112
REMARK   51  A    between atoms: _111  and  _114
REMARK   52  A    between atoms: _114  and  _115
REMARK   53  A    between atoms: _118  and  _120
REMARK   54  A    between atoms: _120  and  _121
REMARK   55  A    between atoms: _120  and  _123
REMARK   56  A    between atoms: _123  and  _124
REMARK   57  A    between atoms: _124  and  _125
REMARK   58  A    between atoms: _125  and  _126
REMARK   59  A    between atoms: _126  and  _127
REMARK   60  A    between atoms: _131  and  _133
REMARK   61  A    between atoms: _133  and  _134
REMARK   62  A    between atoms: _133  and  _136
REMARK   63  A    between atoms: _136  and  _137
REMARK   64  A    between atoms: _140  and  _142
REMARK   65  A    between atoms: _142  and  _143
REMARK   66  A    between atoms: _142  and  _145
REMARK   67  A    between atoms: _145  and  _146
REMARK   68  A    between atoms: _149  and  _151
REMARK   69  A    between atoms: _151  and  _152
REMARK   70  A    between atoms: _151  and  _154
REMARK   71  A    between atoms: _157  and  _159
REMARK   72  A    between atoms: _159  and  _160
REMARK   73  A    between atoms: _159  and  _162
REMARK   74  A    between atoms: _162  and  _163
REMARK   75  A    between atoms: _166  and  _168
REMARK   76  A    between atoms: _168  and  _169
REMARK   77  A    between atoms: _168  and  _171
REMARK   78  A    between atoms: _171  and  _172
REMARK   79  A    between atoms: _175  and  _177
REMARK   80  A    between atoms: _177  and  _178
REMARK   81  A    between atoms: _180  and  _182
REMARK   82  A    between atoms: _182  and  _183
REMARK   83  A    between atoms: _182  and  _185
REMARK   84  A    between atoms: _185  and  _186
REMARK   85  A    between atoms: _189  and  _191
REMARK   86  A    between atoms: _191  and  _192
REMARK   87  A    between atoms: _194  and  _196
REMARK   88  A    between atoms: _196  and  _197
REMARK   89  A    between atoms: _196  and  _199
REMARK   90  A    between atoms: _199  and  _200
REMARK   91  A    between atoms: _200  and  _201
REMARK   92  A    between atoms: _203  and  _205
REMARK   93  A    between atoms: _205  and  _206
REMARK   94  A    between atoms: _205  and  _208
REMARK   95  A    between atoms: _208  and  _209
REMARK   96  A    between atoms: _212  and  _214
REMARK   97  A    between atoms: _214  and  _215
REMARK   98  A    between atoms: _214  and  _217
REMARK   99  A    between atoms: _217  and  _218
REMARK  100  A    between atoms: _221  and  _223
REMARK  101  A    between atoms: _223  and  _224
REMARK  102  A    between atoms: _223  and  _226
REMARK  103  A    between atoms: _226  and  _227
REMARK  104  A    between atoms: _230  and  _232
REMARK  105  A    between atoms: _232  and  _233
REMARK  106  A    between atoms: _232  and  _235
REMARK  107  A    between atoms: _235  and  _236
REMARK  108  A    between atoms: _239  and  _241
REMARK  109  A    between atoms: _241  and  _242
REMARK  110  A    between atoms: _241  and  _244
REMARK  111  A    between atoms: _244  and  _245
REMARK  112  A    between atoms: _250  and  _252
REMARK  113  A    between atoms: _252  and  _253
REMARK  114  A    between atoms: _252  and  _255
REMARK  115  A    between atoms: _255  and  _256
REMARK  116  A    between atoms: _259  and  _261
REMARK  117  A    between atoms: _261  and  _262
REMARK  118  A    between atoms: _264  and  _266
REMARK  119  A    between atoms: _266  and  _267
REMARK  120  A    between atoms: _270  and  _272
REMARK  121  A    between atoms: _272  and  _273
REMARK  122  A    between atoms: _275  and  _277
REMARK  123  A    between atoms: _277  and  _278
REMARK  124  A    between atoms: _277  and  _280
REMARK  125  A    between atoms: _283  and  _285
REMARK  126  A    between atoms: _285  and  _286
REMARK  127  A    between atoms: _288  and  _290
REMARK  128  A    between atoms: _290  and  _291
REMARK  129  A    between atoms: _290  and  _293
REMARK  130  A    between atoms: _293  and  _294
REMARK  131  A    between atoms: _300  and  _302
REMARK  132  A    between atoms: _302  and  _303
REMARK  133  A    between atoms: _302  and  _305
REMARK  134  A    between atoms: _305  and  _306
REMARK  135  A    between atoms: _311  and  _312
REMARK  136  A    between atoms: _314  and  _316
REMARK  137  A    between atoms: _316  and  _317
REMARK  138  A    between atoms: _316  and  _319
REMARK  139  A    between atoms: _319  and  _320
REMARK  140  A    between atoms: _325  and  _326
REMARK  141  A    between atoms: _328  and  _330
REMARK  142  A    between atoms: _330  and  _331
REMARK  143  A    between atoms: _330  and  _333
REMARK  144  A    between atoms: _336  and  _338
REMARK  145  A    between atoms: _338  and  _339
REMARK  146  A    between atoms: _338  and  _341
REMARK  147  A    between atoms: _341  and  _342
REMARK  148  A    between atoms: _345  and  _347
REMARK  149  A    between atoms: _347  and  _348
REMARK  150  A    between atoms: _347  and  _350
REMARK  151  A    between atoms: _353  and  _355
REMARK  152  A    between atoms: _355  and  _356
REMARK  153  A    between atoms: _355  and  _358
REMARK  154  A    between atoms: _358  and  _359
REMARK  155  A    between atoms: _362  and  _364
REMARK  156  A    between atoms: _364  and  _365
REMARK  157  A    between atoms: _364  and  _367
REMARK  158  A    between atoms: _367  and  _368
REMARK  159  A    between atoms: _371  and  _373
REMARK  160  A    between atoms: _373  and  _374
REMARK  161  A    between atoms: _373  and  _376
REMARK  162  A    between atoms: _376  and  _377
REMARK  163  A    between atoms: _377  and  _378
REMARK  164  A    between atoms: _378  and  _379
REMARK  165  A    between atoms: _379  and  _380
REMARK  166  A    between atoms: _384  and  _386
REMARK  167  A    between atoms: _386  and  _387
REMARK  168  A    between atoms: _386  and  _389
REMARK  169  A    between atoms: _389  and  _390
REMARK  170  A    between atoms: _395  and  _397
REMARK  171  A    between atoms: _397  and  _398
REMARK  172  A    between atoms: _401  and  _403
REMARK  173  A    between atoms: _403  and  _404
REMARK  174  A    between atoms: _403  and  _406
REMARK  175  A    between atoms: _406  and  _407
REMARK  176  A    between atoms: _417  and  _419
REMARK  177  A    between atoms: _419  and  _420
REMARK  178  A    between atoms: _419  and  _422
REMARK  179  A    between atoms: _422  and  _423
REMARK  180  A    between atoms: _423  and  _424
REMARK  181  A    between atoms: _427  and  _429
REMARK  182  A    between atoms: _429  and  _430
REMARK  183  A    between atoms: _429  and  _432
REMARK  184  A    between atoms: _432  and  _433
REMARK  185  A    between atoms: _435  and  _437
REMARK  186  A    between atoms: _437  and  _438
REMARK  187  A    between atoms: _437  and  _440
REMARK  188  A    between atoms: _440  and  _441
REMARK  189  A    between atoms: _447  and  _449
REMARK  190  A    between atoms: _449  and  _450
REMARK  191  A    between atoms: _449  and  _452
REMARK  192  A    between atoms: _452  and  _453
REMARK  193  A    between atoms: _456  and  _458
REMARK  194  A    between atoms: _458  and  _459
REMARK  195  A    between atoms: _458  and  _461
REMARK  196  A    between atoms: _464  and  _466
REMARK  197  A    between atoms: _466  and  _467
REMARK  198  A    between atoms: _469  and  _471
REMARK  199  A    between atoms: _471  and  _472
REMARK  200  A    between atoms: _471  and  _474
REMARK  201  A    between atoms: _474  and  _475
REMARK  202  A    between atoms: _478  and  _480
REMARK  203  A    between atoms: _480  and  _481
REMARK  204  A    between atoms: _480  and  _483
REMARK  205  A    between atoms: _483  and  _484
REMARK  206  A    between atoms: _484  and  _485
REMARK  207  A    between atoms: _485  and  _486
REMARK  208  A    between atoms: _486  and  _487
REMARK  209  A    between atoms: _491  and  _493
REMARK  210  A    between atoms: _493  and  _494
REMARK  211  A    between atoms: _493  and  _496
REMARK  212  A    between atoms: _499  and  _501
REMARK  213  A    between atoms: _501  and  _502
REMARK  214  A    between atoms: _501  and  _504
REMARK  215  A    between atoms: _504  and  _505
REMARK                            x       y       z     vdW  Elec       q    Type
REMARK                         _______ _______ _______ _____ _____    ______ ____
ROOT
ATOM      1  O   HOH     1      -1.220  37.434  30.945  0.00  0.00    +0.000 OA
ENDROOT
TORSDOF 0
REMARK  Name = ../refined-set-2016/3qdd/3qdd_pocket.pdb
REMARK  215 active torsions:
REMARK  status: ('A' for Active; 'I' for Inactive)
REMARK    1  A    between atoms: _1  and  _3
REMARK    2  A    between atoms: _3  and  _4
REMARK    3  A    between atoms: _3  and  _6
REMARK    4  A    between atoms: _6  and  _7
REMARK    5  A    between atoms: _13  and  _15
REMARK    6  A    between atoms: _15  and  _16
REMARK    7  A    between atoms: _15  and  _18
REMARK    8  A    between atoms: _18  and  _19
REMARK    9  A    between atoms: _22  and  _24
REMARK   10  A    between atoms: _24  and  _25
REMARK   11  A    between atoms: _24  and  _27
REMARK   12  A    between atoms: _27  and  _28
REMARK   13  A    between atoms: _28  and  _29
REMARK   14  A    between atoms: _31  and  _33
REMARK   15  A    between atoms: _33  and  _34
REMARK   16  A    between atoms: _33  and  _36
REMARK   17  A    between atoms: _36  and  _37
REMARK   18  A    between atoms: _37  and  _38
REMARK   19  A    between atoms: _41  and  _43
REMARK   20  A    between atoms: _43  and  _44
REMARK   21  A    between atoms: _43  and  _46
REMARK   22  A    between atoms: _46  and  _47
REMARK   23  A    between atoms: _50  and  _52
REMARK   24  A    between atoms: _52  and  _53
REMARK   25  A    between atoms: _52  and  _55
REMARK   26  A    between atoms: _55  and  _56
REMARK   27  A    between atoms: _59  and  _61
REMARK   28  A    between atoms: _61  and  _62
REMARK   29  A    between atoms: _61  and  _64
REMARK   30  A    between atoms: _64  and  _65
REMARK   31  A    between atoms: _67  and  _69
REMARK   32  A    between atoms: _69  and  _70
REMARK   33  A    between atoms: _69  and  _72
REMARK   34  A    between atoms: _72  and  _73
REMARK   35  A    between atoms: _78  and  _80
REMARK   36  A    between atoms: _80  and  _81
REMARK   37  A    between atoms: _80  and  _83
REMARK   38  A    between atoms: _83  and  _84
REMARK   39  A    between atoms: _86  and  _88
REMARK   40  A    between atoms: _88  and  _89
REMARK   41  A    between atoms: _88  and  _91
REMARK   42  A    between atoms: _91  and  _92
REMARK   43  A    between atoms: _94  and  _96
REMARK   44  A    between atoms: _96  and  _97
REMARK   45  A    between atoms: _96  and  _99
REMARK   46  A    between atoms: _99  and  _100
REMARK   47  A    between atoms: _103  and  _105
REMARK   48  A    between atoms: _105  and  _106
REMARK   49  A    between atoms: _109  and  _111
REMARK   50  A    between atoms: _111  and  _112
REMARK   51  A    between atoms: _111  and  _114
REMARK   52  A    between atoms: _114  and  _115
REMARK   53  A    between atoms: _118  and  _120
REMARK   54  A    between atoms: _120  and  _121
REMARK   55  A    between atoms: _120  and  _123
REMARK   56  A    between atoms: _123  and  _124
REMARK   57  A    between atoms: _124  and  _125
REMARK   58  A    between atoms: _125  and  _126
REMARK   59  A    between atoms: _126  and  _127
REMARK   60  A    between atoms: _131  and  _133
REMARK   61  A    between atoms: _133  and  _134
REMARK   62  A    between atoms: _133  and  _136
REMARK   63  A    between atoms: _136  and  _137
REMARK   64  A    between atoms: _140  and  _142
REMARK   65  A    between atoms: _142  and  _143
REMARK   66  A    between atoms: _142  and  _145
REMARK   67  A    between atoms: _145  and  _146
REMARK   68  A    between atoms: _149  and  _151
REMARK   69  A    between atoms: _151  and  _152
REMARK   70  A    between atoms: _151  and  _154
REMARK   71  A    between atoms: _157  and  _159
REMARK   72  A    between atoms: _159  and  _160
REMARK   73  A    between atoms: _159  and  _162
REMARK   74  A    between atoms: _162  and  _163
REMARK   75  A    between atoms: _166  and  _168
REMARK   76  A    between atoms: _168  and  _169
REMARK   77  A    between atoms: _168  and  _171
REMARK   78  A    between atoms: _171  and  _172
REMARK   79  A    between atoms: _175  and  _177
REMARK   80  A    between atoms: _177  and  _178
REMARK   81  A    between atoms: _180  and  _182
REMARK   82  A    between atoms: _182  and  _183
REMARK   83  A    between atoms: _182  and  _185
REMARK   84  A    between atoms: _185  and  _186
REMARK   85  A    between atoms: _189  and  _191
REMARK   86  A    between atoms: _191  and  _192
REMARK   87  A    between atoms: _194  and  _196
REMARK   88  A    between atoms: _196  and  _197
REMARK   89  A    between atoms: _196  and  _199
REMARK   90  A    between atoms: _199  and  _200
REMARK   91  A    between atoms: _200  and  _201
REMARK   92  A    between atoms: _203  and  _205
REMARK   93  A    between atoms: _205  and  _206
REMARK   94  A    between atoms: _205  and  _208
REMARK   95  A    between atoms: _208  and  _209
REMARK   96  A    between atoms: _212  and  _214
REMARK   97  A    between atoms: _214  and  _215
REMARK   98  A    between atoms: _214  and  _217
REMARK   99  A    between atoms: _217  and  _218
REMARK  100  A    between atoms: _221  and  _223
REMARK  101  A    between atoms: _223  and  _224
REMARK  102  A    between atoms: _223  and  _226
REMARK  103  A    between atoms: _226  and  _227
REMARK  104  A    between atoms: _230  and  _232
REMARK  105  A    between atoms: _232  and  _233
REMARK  106  A    between atoms: _232  and  _235
REMARK  107  A    between atoms: _235  and  _236
REMARK  108  A    between atoms: _239  and  _241
REMARK  109  A    between atoms: _241  and  _242
REMARK  110  A    between atoms: _241  and  _244
REMARK  111  A    between atoms: _244  and  _245
REMARK  112  A    between atoms: _250  and  _252
REMARK  113  A    between atoms: _252  and  _253
REMARK  114  A    between atoms: _252  and  _255
REMARK  115  A    between atoms: _255  and  _256
REMARK  116  A    between atoms: _259  and  _261
REMARK  117  A    between atoms: _261  and  _262
REMARK  118  A    between atoms: _264  and  _266
REMARK  119  A    between atoms: _266  and  _267
REMARK  120  A    between atoms: _270  and  _272
REMARK  121  A    between atoms: _272  and  _273
REMARK  122  A    between atoms: _275  and  _277
REMARK  123  A    between atoms: _277  and  _278
REMARK  124  A    between atoms: _277  and  _280
REMARK  125  A    between atoms: _283  and  _285
REMARK  126  A    between atoms: _285  and  _286
REMARK  127  A    between atoms: _288  and  _290
REMARK  128  A    between atoms: _290  and  _291
REMARK  129  A    between atoms: _290  and  _293
REMARK  130  A    between atoms: _293  and  _294
REMARK  131  A    between atoms: _300  and  _302
REMARK  132  A    between atoms: _302  and  _303
REMARK  133  A    between atoms: _302  and  _305
REMARK  134  A    between atoms: _305  and  _306
REMARK  135  A    between atoms: _311  and  _312
REMARK  136  A    between atoms: _314  and  _316
REMARK  137  A    between atoms: _316  and  _317
REMARK  138  A    between atoms: _316  and  _319
REMARK  139  A    between atoms: _319  and  _320
REMARK  140  A    between atoms: _325  and  _326
REMARK  141  A    between atoms: _328  and  _330
REMARK  142  A    between atoms: _330  and  _331
REMARK  143  A    between atoms: _330  and  _333
REMARK  144  A    between atoms: _336  and  _338
REMARK  145  A    between atoms: _338  and  _339
REMARK  146  A    between atoms: _338  and  _341
REMARK  147  A    between atoms: _341  and  _342
REMARK  148  A    between atoms: _345  and  _347
REMARK  149  A    between atoms: _347  and  _348
REMARK  150  A    between atoms: _347  and  _350
REMARK  151  A    between atoms: _353  and  _355
REMARK  152  A    between atoms: _355  and  _356
REMARK  153  A    between atoms: _355  and  _358
REMARK  154  A    between atoms: _358  and  _359
REMARK  155  A    between atoms: _362  and  _364
REMARK  156  A    between atoms: _364  and  _365
REMARK  157  A    between atoms: _364  and  _367
REMARK  158  A    between atoms: _367  and  _368
REMARK  159  A    between atoms: _371  and  _373
REMARK  160  A    between atoms: _373  and  _374
REMARK  161  A    between atoms: _373  and  _376
REMARK  162  A    between atoms: _376  and  _377
REMARK  163  A    between atoms: _377  and  _378
REMARK  164  A    between atoms: _378  and  _379
REMARK  165  A    between atoms: _379  and  _380
REMARK  166  A    between atoms: _384  and  _386
REMARK  167  A    between atoms: _386  and  _387
REMARK  168  A    between atoms: _386  and  _389
REMARK  169  A    between atoms: _389  and  _390
REMARK  170  A    between atoms: _395  and  _397
REMARK  171  A    between atoms: _397  and  _398
REMARK  172  A    between atoms: _401  and  _403
REMARK  173  A    between atoms: _403  and  _404
REMARK  174  A    between atoms: _403  and  _406
REMARK  175  A    between atoms: _406  and  _407
REMARK  176  A    between atoms: _417  and  _419
REMARK  177  A    between atoms: _419  and  _420
REMARK  178  A    between atoms: _419  and  _422
REMARK  179  A    between atoms: _422  and  _423
REMARK  180  A    between atoms: _423  and  _424
REMARK  181  A    between atoms: _427  and  _429
REMARK  182  A    between atoms: _429  and  _430
REMARK  183  A    between atoms: _429  and  _432
REMARK  184  A    between atoms: _432  and  _433
REMARK  185  A    between atoms: _435  and  _437
REMARK  186  A    between atoms: _437  and  _438
REMARK  187  A    between atoms: _437  and  _440
REMARK  188  A    between atoms: _440  and  _441
REMARK  189  A    between atoms: _447  and  _449
REMARK  190  A    between atoms: _449  and  _450
REMARK  191  A    between atoms: _449  and  _452
REMARK  192  A    between atoms: _452  and  _453
REMARK  193  A    between atoms: _456  and  _458
REMARK  194  A    between atoms: _458  and  _459
REMARK  195  A    between atoms: _458  and  _461
REMARK  196  A    between atoms: _464  and  _466
REMARK  197  A    between atoms: _466  and  _467
REMARK  198  A    between atoms: _469  and  _471
REMARK  199  A    between atoms: _471  and  _472
REMARK  200  A    between atoms: _471  and  _474
REMARK  201  A    between atoms: _474  and  _475
REMARK  202  A    between atoms: _478  and  _480
REMARK  203  A    between atoms: _480  and  _481
REMARK  204  A    between atoms: _480  and  _483
REMARK  205  A    between atoms: _483  and  _484
REMARK  206  A    between atoms: _484  and  _485
REMARK  207  A    between atoms: _485  and  _486
REMARK  208  A    between atoms: _486  and  _487
REMARK  209  A    between atoms: _491  and  _493
REMARK  210  A    between atoms: _493  and  _494
REMARK  211  A    between atoms: _493  and  _496
REMARK  212  A    between atoms: _499  and  _501
REMARK  213  A    between atoms: _501  and  _502
REMARK  214  A    between atoms: _501  and  _504
REMARK  215  A    between atoms: _504  and  _505
REMARK                            x       y       z     vdW  Elec       q    Type
REMARK                         _______ _______ _______ _____ _____    ______ ____
ROOT
ATOM      1  O   HOH     1       0.435  39.286  26.629  0.00  0.00    +0.000 OA
ENDROOT
TORSDOF 0
REMARK  Name = ../refined-set-2016/3qdd/3qdd_pocket.pdb
REMARK  215 active torsions:
REMARK  status: ('A' for Active; 'I' for Inactive)
REMARK    1  A    between atoms: _1  and  _3
REMARK    2  A    between atoms: _3  and  _4
REMARK    3  A    between atoms: _3  and  _6
REMARK    4  A    between atoms: _6  and  _7
REMARK    5  A    between atoms: _13  and  _15
REMARK    6  A    between atoms: _15  and  _16
REMARK    7  A    between atoms: _15  and  _18
REMARK    8  A    between atoms: _18  and  _19
REMARK    9  A    between atoms: _22  and  _24
REMARK   10  A    between atoms: _24  and  _25
REMARK   11  A    between atoms: _24  and  _27
REMARK   12  A    between atoms: _27  and  _28
REMARK   13  A    between atoms: _28  and  _29
REMARK   14  A    between atoms: _31  and  _33
REMARK   15  A    between atoms: _33  and  _34
REMARK   16  A    between atoms: _33  and  _36
REMARK   17  A    between atoms: _36  and  _37
REMARK   18  A    between atoms: _37  and  _38
REMARK   19  A    between atoms: _41  and  _43
REMARK   20  A    between atoms: _43  and  _44
REMARK   21  A    between atoms: _43  and  _46
REMARK   22  A    between atoms: _46  and  _47
REMARK   23  A    between atoms: _50  and  _52
REMARK   24  A    between atoms: _52  and  _53
REMARK   25  A    between atoms: _52  and  _55
REMARK   26  A    between atoms: _55  and  _56
REMARK   27  A    between atoms: _59  and  _61
REMARK   28  A    between atoms: _61  and  _62
REMARK   29  A    between atoms: _61  and  _64
REMARK   30  A    between atoms: _64  and  _65
REMARK   31  A    between atoms: _67  and  _69
REMARK   32  A    between atoms: _69  and  _70
REMARK   33  A    between atoms: _69  and  _72
REMARK   34  A    between atoms: _72  and  _73
REMARK   35  A    between atoms: _78  and  _80
REMARK   36  A    between atoms: _80  and  _81
REMARK   37  A    between atoms: _80  and  _83
REMARK   38  A    between atoms: _83  and  _84
REMARK   39  A    between atoms: _86  and  _88
REMARK   40  A    between atoms: _88  and  _89
REMARK   41  A    between atoms: _88  and  _91
REMARK   42  A    between atoms: _91  and  _92
REMARK   43  A    between atoms: _94  and  _96
REMARK   44  A    between atoms: _96  and  _97
REMARK   45  A    between atoms: _96  and  _99
REMARK   46  A    between atoms: _99  and  _100
REMARK   47  A    between atoms: _103  and  _105
REMARK   48  A    between atoms: _105  and  _106
REMARK   49  A    between atoms: _109  and  _111
REMARK   50  A    between atoms: _111  and  _112
REMARK   51  A    between atoms: _111  and  _114
REMARK   52  A    between atoms: _114  and  _115
REMARK   53  A    between atoms: _118  and  _120
REMARK   54  A    between atoms: _120  and  _121
REMARK   55  A    between atoms: _120  and  _123
REMARK   56  A    between atoms: _123  and  _124
REMARK   57  A    between atoms: _124  and  _125
REMARK   58  A    between atoms: _125  and  _126
REMARK   59  A    between atoms: _126  and  _127
REMARK   60  A    between atoms: _131  and  _133
REMARK   61  A    between atoms: _133  and  _134
REMARK   62  A    between atoms: _133  and  _136
REMARK   63  A    between atoms: _136  and  _137
REMARK   64  A    between atoms: _140  and  _142
REMARK   65  A    between atoms: _142  and  _143
REMARK   66  A    between atoms: _142  and  _145
REMARK   67  A    between atoms: _145  and  _146
REMARK   68  A    between atoms: _149  and  _151
REMARK   69  A    between atoms: _151  and  _152
REMARK   70  A    between atoms: _151  and  _154
REMARK   71  A    between atoms: _157  and  _159
REMARK   72  A    between atoms: _159  and  _160
REMARK   73  A    between atoms: _159  and  _162
REMARK   74  A    between atoms: _162  and  _163
REMARK   75  A    between atoms: _166  and  _168
REMARK   76  A    between atoms: _168  and  _169
REMARK   77  A    between atoms: _168  and  _171
REMARK   78  A    between atoms: _171  and  _172
REMARK   79  A    between atoms: _175  and  _177
REMARK   80  A    between atoms: _177  and  _178
REMARK   81  A    between atoms: _180  and  _182
REMARK   82  A    between atoms: _182  and  _183
REMARK   83  A    between atoms: _182  and  _185
REMARK   84  A    between atoms: _185  and  _186
REMARK   85  A    between atoms: _189  and  _191
REMARK   86  A    between atoms: _191  and  _192
REMARK   87  A    between atoms: _194  and  _196
REMARK   88  A    between atoms: _196  and  _197
REMARK   89  A    between atoms: _196  and  _199
REMARK   90  A    between atoms: _199  and  _200
REMARK   91  A    between atoms: _200  and  _201
REMARK   92  A    between atoms: _203  and  _205
REMARK   93  A    between atoms: _205  and  _206
REMARK   94  A    between atoms: _205  and  _208
REMARK   95  A    between atoms: _208  and  _209
REMARK   96  A    between atoms: _212  and  _214
REMARK   97  A    between atoms: _214  and  _215
REMARK   98  A    between atoms: _214  and  _217
REMARK   99  A    between atoms: _217  and  _218
REMARK  100  A    between atoms: _221  and  _223
REMARK  101  A    between atoms: _223  and  _224
REMARK  102  A    between atoms: _223  and  _226
REMARK  103  A    between atoms: _226  and  _227
REMARK  104  A    between atoms: _230  and  _232
REMARK  105  A    between atoms: _232  and  _233
REMARK  106  A    between atoms: _232  and  _235
REMARK  107  A    between atoms: _235  and  _236
REMARK  108  A    between atoms: _239  and  _241
REMARK  109  A    between atoms: _241  and  _242
REMARK  110  A    between atoms: _241  and  _244
REMARK  111  A    between atoms: _244  and  _245
REMARK  112  A    between atoms: _250  and  _252
REMARK  113  A    between atoms: _252  and  _253
REMARK  114  A    between atoms: _252  and  _255
REMARK  115  A    between atoms: _255  and  _256
REMARK  116  A    between atoms: _259  and  _261
REMARK  117  A    between atoms: _261  and  _262
REMARK  118  A    between atoms: _264  and  _266
REMARK  119  A    between atoms: _266  and  _267
REMARK  120  A    between atoms: _270  and  _272
REMARK  121  A    between atoms: _272  and  _273
REMARK  122  A    between atoms: _275  and  _277
REMARK  123  A    between atoms: _277  and  _278
REMARK  124  A    between atoms: _277  and  _280
REMARK  125  A    between atoms: _283  and  _285
REMARK  126  A    between atoms: _285  and  _286
REMARK  127  A    between atoms: _288  and  _290
REMARK  128  A    between atoms: _290  and  _291
REMARK  129  A    between atoms: _290  and  _293
REMARK  130  A    between atoms: _293  and  _294
REMARK  131  A    between atoms: _300  and  _302
REMARK  132  A    between atoms: _302  and  _303
REMARK  133  A    between atoms: _302  and  _305
REMARK  134  A    between atoms: _305  and  _306
REMARK  135  A    between atoms: _311  and  _312
REMARK  136  A    between atoms: _314  and  _316
REMARK  137  A    between atoms: _316  and  _317
REMARK  138  A    between atoms: _316  and  _319
REMARK  139  A    between atoms: _319  and  _320
REMARK  140  A    between atoms: _325  and  _326
REMARK  141  A    between atoms: _328  and  _330
REMARK  142  A    between atoms: _330  and  _331
REMARK  143  A    between atoms: _330  and  _333
REMARK  144  A    between atoms: _336  and  _338
REMARK  145  A    between atoms: _338  and  _339
REMARK  146  A    between atoms: _338  and  _341
REMARK  147  A    between atoms: _341  and  _342
REMARK  148  A    between atoms: _345  and  _347
REMARK  149  A    between atoms: _347  and  _348
REMARK  150  A    between atoms: _347  and  _350
REMARK  151  A    between atoms: _353  and  _355
REMARK  152  A    between atoms: _355  and  _356
REMARK  153  A    between atoms: _355  and  _358
REMARK  154  A    between atoms: _358  and  _359
REMARK  155  A    between atoms: _362  and  _364
REMARK  156  A    between atoms: _364  and  _365
REMARK  157  A    between atoms: _364  and  _367
REMARK  158  A    between atoms: _367  and  _368
REMARK  159  A    between atoms: _371  and  _373
REMARK  160  A    between atoms: _373  and  _374
REMARK  161  A    between atoms: _373  and  _376
REMARK  162  A    between atoms: _376  and  _377
REMARK  163  A    between atoms: _377  and  _378
REMARK  164  A    between atoms: _378  and  _379
REMARK  165  A    between atoms: _379  and  _380
REMARK  166  A    between atoms: _384  and  _386
REMARK  167  A    between atoms: _386  and  _387
REMARK  168  A    between atoms: _386  and  _389
REMARK  169  A    between atoms: _389  and  _390
REMARK  170  A    between atoms: _395  and  _397
REMARK  171  A    between atoms: _397  and  _398
REMARK  172  A    between atoms: _401  and  _403
REMARK  173  A    between atoms: _403  and  _404
REMARK  174  A    between atoms: _403  and  _406
REMARK  175  A    between atoms: _406  and  _407
REMARK  176  A    between atoms: _417  and  _419
REMARK  177  A    between atoms: _419  and  _420
REMARK  178  A    between atoms: _419  and  _422
REMARK  179  A    between atoms: _422  and  _423
REMARK  180  A    between atoms: _423  and  _424
REMARK  181  A    between atoms: _427  and  _429
REMARK  182  A    between atoms: _429  and  _430
REMARK  183  A    between atoms: _429  and  _432
REMARK  184  A    between atoms: _432  and  _433
REMARK  185  A    between atoms: _435  and  _437
REMARK  186  A    between atoms: _437  and  _438
REMARK  187  A    between atoms: _437  and  _440
REMARK  188  A    between atoms: _440  and  _441
REMARK  189  A    between atoms: _447  and  _449
REMARK  190  A    between atoms: _449  and  _450
REMARK  191  A    between atoms: _449  and  _452
REMARK  192  A    between atoms: _452  and  _453
REMARK  193  A    between atoms: _456  and  _458
REMARK  194  A    between atoms: _458  and  _459
REMARK  195  A    between atoms: _458  and  _461
REMARK  196  A    between atoms: _464  and  _466
REMARK  197  A    between atoms: _466  and  _467
REMARK  198  A    between atoms: _469  and  _471
REMARK  199  A    between atoms: _471  and  _472
REMARK  200  A    between atoms: _471  and  _474
REMARK  201  A    between atoms: _474  and  _475
REMARK  202  A    between atoms: _478  and  _480
REMARK  203  A    between atoms: _480  and  _481
REMARK  204  A    between atoms: _480  and  _483
REMARK  205  A    between atoms: _483  and  _484
REMARK  206  A    between atoms: _484  and  _485
REMARK  207  A    between atoms: _485  and  _486
REMARK  208  A    between atoms: _486  and  _487
REMARK  209  A    between atoms: _491  and  _493
REMARK  210  A    between atoms: _493  and  _494
REMARK  211  A    between atoms: _493  and  _496
REMARK  212  A    between atoms: _499  and  _501
REMARK  213  A    between atoms: _501  and  _502
REMARK  214  A    between atoms: _501  and  _504
REMARK  215  A    between atoms: _504  and  _505
REMARK                            x       y       z     vdW  Elec       q    Type
REMARK                         _______ _______ _______ _____ _____    ______ ____
ROOT
ATOM      1  O   HOH     1      -0.762  40.090  31.275  0.00  0.00    +0.000 OA
ENDROOT
TORSDOF 0
REMARK  Name = ../refined-set-2016/3qdd/3qdd_pocket.pdb
REMARK  215 active torsions:
REMARK  status: ('A' for Active; 'I' for Inactive)
REMARK    1  A    between atoms: _1  and  _3
REMARK    2  A    between atoms: _3  and  _4
REMARK    3  A    between atoms: _3  and  _6
REMARK    4  A    between atoms: _6  and  _7
REMARK    5  A    between atoms: _13  and  _15
REMARK    6  A    between atoms: _15  and  _16
REMARK    7  A    between atoms: _15  and  _18
REMARK    8  A    between atoms: _18  and  _19
REMARK    9  A    between atoms: _22  and  _24
REMARK   10  A    between atoms: _24  and  _25
REMARK   11  A    between atoms: _24  and  _27
REMARK   12  A    between atoms: _27  and  _28
REMARK   13  A    between atoms: _28  and  _29
REMARK   14  A    between atoms: _31  and  _33
REMARK   15  A    between atoms: _33  and  _34
REMARK   16  A    between atoms: _33  and  _36
REMARK   17  A    between atoms: _36  and  _37
REMARK   18  A    between atoms: _37  and  _38
REMARK   19  A    between atoms: _41  and  _43
REMARK   20  A    between atoms: _43  and  _44
REMARK   21  A    between atoms: _43  and  _46
REMARK   22  A    between atoms: _46  and  _47
REMARK   23  A    between atoms: _50  and  _52
REMARK   24  A    between atoms: _52  and  _53
REMARK   25  A    between atoms: _52  and  _55
REMARK   26  A    between atoms: _55  and  _56
REMARK   27  A    between atoms: _59  and  _61
REMARK   28  A    between atoms: _61  and  _62
REMARK   29  A    between atoms: _61  and  _64
REMARK   30  A    between atoms: _64  and  _65
REMARK   31  A    between atoms: _67  and  _69
REMARK   32  A    between atoms: _69  and  _70
REMARK   33  A    between atoms: _69  and  _72
REMARK   34  A    between atoms: _72  and  _73
REMARK   35  A    between atoms: _78  and  _80
REMARK   36  A    between atoms: _80  and  _81
REMARK   37  A    between atoms: _80  and  _83
REMARK   38  A    between atoms: _83  and  _84
REMARK   39  A    between atoms: _86  and  _88
REMARK   40  A    between atoms: _88  and  _89
REMARK   41  A    between atoms: _88  and  _91
REMARK   42  A    between atoms: _91  and  _92
REMARK   43  A    between atoms: _94  and  _96
REMARK   44  A    between atoms: _96  and  _97
REMARK   45  A    between atoms: _96  and  _99
REMARK   46  A    between atoms: _99  and  _100
REMARK   47  A    between atoms: _103  and  _105
REMARK   48  A    between atoms: _105  and  _106
REMARK   49  A    between atoms: _109  and  _111
REMARK   50  A    between atoms: _111  and  _112
REMARK   51  A    between atoms: _111  and  _114
REMARK   52  A    between atoms: _114  and  _115
REMARK   53  A    between atoms: _118  and  _120
REMARK   54  A    between atoms: _120  and  _121
REMARK   55  A    between atoms: _120  and  _123
REMARK   56  A    between atoms: _123  and  _124
REMARK   57  A    between atoms: _124  and  _125
REMARK   58  A    between atoms: _125  and  _126
REMARK   59  A    between atoms: _126  and  _127
REMARK   60  A    between atoms: _131  and  _133
REMARK   61  A    between atoms: _133  and  _134
REMARK   62  A    between atoms: _133  and  _136
REMARK   63  A    between atoms: _136  and  _137
REMARK   64  A    between atoms: _140  and  _142
REMARK   65  A    between atoms: _142  and  _143
REMARK   66  A    between atoms: _142  and  _145
REMARK   67  A    between atoms: _145  and  _146
REMARK   68  A    between atoms: _149  and  _151
REMARK   69  A    between atoms: _151  and  _152
REMARK   70  A    between atoms: _151  and  _154
REMARK   71  A    between atoms: _157  and  _159
REMARK   72  A    between atoms: _159  and  _160
REMARK   73  A    between atoms: _159  and  _162
REMARK   74  A    between atoms: _162  and  _163
REMARK   75  A    between atoms: _166  and  _168
REMARK   76  A    between atoms: _168  and  _169
REMARK   77  A    between atoms: _168  and  _171
REMARK   78  A    between atoms: _171  and  _172
REMARK   79  A    between atoms: _175  and  _177
REMARK   80  A    between atoms: _177  and  _178
REMARK   81  A    between atoms: _180  and  _182
REMARK   82  A    between atoms: _182  and  _183
REMARK   83  A    between atoms: _182  and  _185
REMARK   84  A    between atoms: _185  and  _186
REMARK   85  A    between atoms: _189  and  _191
REMARK   86  A    between atoms: _191  and  _192
REMARK   87  A    between atoms: _194  and  _196
REMARK   88  A    between atoms: _196  and  _197
REMARK   89  A    between atoms: _196  and  _199
REMARK   90  A    between atoms: _199  and  _200
REMARK   91  A    between atoms: _200  and  _201
REMARK   92  A    between atoms: _203  and  _205
REMARK   93  A    between atoms: _205  and  _206
REMARK   94  A    between atoms: _205  and  _208
REMARK   95  A    between atoms: _208  and  _209
REMARK   96  A    between atoms: _212  and  _214
REMARK   97  A    between atoms: _214  and  _215
REMARK   98  A    between atoms: _214  and  _217
REMARK   99  A    between atoms: _217  and  _218
REMARK  100  A    between atoms: _221  and  _223
REMARK  101  A    between atoms: _223  and  _224
REMARK  102  A    between atoms: _223  and  _226
REMARK  103  A    between atoms: _226  and  _227
REMARK  104  A    between atoms: _230  and  _232
REMARK  105  A    between atoms: _232  and  _233
REMARK  106  A    between atoms: _232  and  _235
REMARK  107  A    between atoms: _235  and  _236
REMARK  108  A    between atoms: _239  and  _241
REMARK  109  A    between atoms: _241  and  _242
REMARK  110  A    between atoms: _241  and  _244
REMARK  111  A    between atoms: _244  and  _245
REMARK  112  A    between atoms: _250  and  _252
REMARK  113  A    between atoms: _252  and  _253
REMARK  114  A    between atoms: _252  and  _255
REMARK  115  A    between atoms: _255  and  _256
REMARK  116  A    between atoms: _259  and  _261
REMARK  117  A    between atoms: _261  and  _262
REMARK  118  A    between atoms: _264  and  _266
REMARK  119  A    between atoms: _266  and  _267
REMARK  120  A    between atoms: _270  and  _272
REMARK  121  A    between atoms: _272  and  _273
REMARK  122  A    between atoms: _275  and  _277
REMARK  123  A    between atoms: _277  and  _278
REMARK  124  A    between atoms: _277  and  _280
REMARK  125  A    between atoms: _283  and  _285
REMARK  126  A    between atoms: _285  and  _286
REMARK  127  A    between atoms: _288  and  _290
REMARK  128  A    between atoms: _290  and  _291
REMARK  129  A    between atoms: _290  and  _293
REMARK  130  A    between atoms: _293  and  _294
REMARK  131  A    between atoms: _300  and  _302
REMARK  132  A    between atoms: _302  and  _303
REMARK  133  A    between atoms: _302  and  _305
REMARK  134  A    between atoms: _305  and  _306
REMARK  135  A    between atoms: _311  and  _312
REMARK  136  A    between atoms: _314  and  _316
REMARK  137  A    between atoms: _316  and  _317
REMARK  138  A    between atoms: _316  and  _319
REMARK  139  A    between atoms: _319  and  _320
REMARK  140  A    between atoms: _325  and  _326
REMARK  141  A    between atoms: _328  and  _330
REMARK  142  A    between atoms: _330  and  _331
REMARK  143  A    between atoms: _330  and  _333
REMARK  144  A    between atoms: _336  and  _338
REMARK  145  A    between atoms: _338  and  _339
REMARK  146  A    between atoms: _338  and  _341
REMARK  147  A    between atoms: _341  and  _342
REMARK  148  A    between atoms: _345  and  _347
REMARK  149  A    between atoms: _347  and  _348
REMARK  150  A    between atoms: _347  and  _350
REMARK  151  A    between atoms: _353  and  _355
REMARK  152  A    between atoms: _355  and  _356
REMARK  153  A    between atoms: _355  and  _358
REMARK  154  A    between atoms: _358  and  _359
REMARK  155  A    between atoms: _362  and  _364
REMARK  156  A    between atoms: _364  and  _365
REMARK  157  A    between atoms: _364  and  _367
REMARK  158  A    between atoms: _367  and  _368
REMARK  159  A    between atoms: _371  and  _373
REMARK  160  A    between atoms: _373  and  _374
REMARK  161  A    between atoms: _373  and  _376
REMARK  162  A    between atoms: _376  and  _377
REMARK  163  A    between atoms: _377  and  _378
REMARK  164  A    between atoms: _378  and  _379
REMARK  165  A    between atoms: _379  and  _380
REMARK  166  A    between atoms: _384  and  _386
REMARK  167  A    between atoms: _386  and  _387
REMARK  168  A    between atoms: _386  and  _389
REMARK  169  A    between atoms: _389  and  _390
REMARK  170  A    between atoms: _395  and  _397
REMARK  171  A    between atoms: _397  and  _398
REMARK  172  A    between atoms: _401  and  _403
REMARK  173  A    between atoms: _403  and  _404
REMARK  174  A    between atoms: _403  and  _406
REMARK  175  A    between atoms: _406  and  _407
REMARK  176  A    between atoms: _417  and  _419
REMARK  177  A    between atoms: _419  and  _420
REMARK  178  A    between atoms: _419  and  _422
REMARK  179  A    between atoms: _422  and  _423
REMARK  180  A    between atoms: _423  and  _424
REMARK  181  A    between atoms: _427  and  _429
REMARK  182  A    between atoms: _429  and  _430
REMARK  183  A    between atoms: _429  and  _432
REMARK  184  A    between atoms: _432  and  _433
REMARK  185  A    between atoms: _435  and  _437
REMARK  186  A    between atoms: _437  and  _438
REMARK  187  A    between atoms: _437  and  _440
REMARK  188  A    between atoms: _440  and  _441
REMARK  189  A    between atoms: _447  and  _449
REMARK  190  A    between atoms: _449  and  _450
REMARK  191  A    between atoms: _449  and  _452
REMARK  192  A    between atoms: _452  and  _453
REMARK  193  A    between atoms: _456  and  _458
REMARK  194  A    between atoms: _458  and  _459
REMARK  195  A    between atoms: _458  and  _461
REMARK  196  A    between atoms: _464  and  _466
REMARK  197  A    between atoms: _466  and  _467
REMARK  198  A    between atoms: _469  and  _471
REMARK  199  A    between atoms: _471  and  _472
REMARK  200  A    between atoms: _471  and  _474
REMARK  201  A    between atoms: _474  and  _475
REMARK  202  A    between atoms: _478  and  _480
REMARK  203  A    between atoms: _480  and  _481
REMARK  204  A    between atoms: _480  and  _483
REMARK  205  A    between atoms: _483  and  _484
REMARK  206  A    between atoms: _484  and  _485
REMARK  207  A    between atoms: _485  and  _486
REMARK  208  A    between atoms: _486  and  _487
REMARK  209  A    between atoms: _491  and  _493
REMARK  210  A    between atoms: _493  and  _494
REMARK  211  A    between atoms: _493  and  _496
REMARK  212  A    between atoms: _499  and  _501
REMARK  213  A    between atoms: _501  and  _502
REMARK  214  A    between atoms: _501  and  _504
REMARK  215  A    between atoms: _504  and  _505
REMARK                            x       y       z     vdW  Elec       q    Type
REMARK                         _______ _______ _______ _____ _____    ______ ____
ROOT
ATOM      1  O   HOH     1      -2.045  37.883  28.202  0.00  0.00    +0.000 OA
ENDROOT
TORSDOF 0
REMARK  Name = ../refined-set-2016/3qdd/3qdd_pocket.pdb
REMARK  215 active torsions:
REMARK  status: ('A' for Active; 'I' for Inactive)
REMARK    1  A    between atoms: _1  and  _3
REMARK    2  A    between atoms: _3  and  _4
REMARK    3  A    between atoms: _3  and  _6
REMARK    4  A    between atoms: _6  and  _7
REMARK    5  A    between atoms: _13  and  _15
REMARK    6  A    between atoms: _15  and  _16
REMARK    7  A    between atoms: _15  and  _18
REMARK    8  A    between atoms: _18  and  _19
REMARK    9  A    between atoms: _22  and  _24
REMARK   10  A    between atoms: _24  and  _25
REMARK   11  A    between atoms: _24  and  _27
REMARK   12  A    between atoms: _27  and  _28
REMARK   13  A    between atoms: _28  and  _29
REMARK   14  A    between atoms: _31  and  _33
REMARK   15  A    between atoms: _33  and  _34
REMARK   16  A    between atoms: _33  and  _36
REMARK   17  A    between atoms: _36  and  _37
REMARK   18  A    between atoms: _37  and  _38
REMARK   19  A    between atoms: _41  and  _43
REMARK   20  A    between atoms: _43  and  _44
REMARK   21  A    between atoms: _43  and  _46
REMARK   22  A    between atoms: _46  and  _47
REMARK   23  A    between atoms: _50  and  _52
REMARK   24  A    between atoms: _52  and  _53
REMARK   25  A    between atoms: _52  and  _55
REMARK   26  A    between atoms: _55  and  _56
REMARK   27  A    between atoms: _59  and  _61
REMARK   28  A    between atoms: _61  and  _62
REMARK   29  A    between atoms: _61  and  _64
REMARK   30  A    between atoms: _64  and  _65
REMARK   31  A    between atoms: _67  and  _69
REMARK   32  A    between atoms: _69  and  _70
REMARK   33  A    between atoms: _69  and  _72
REMARK   34  A    between atoms: _72  and  _73
REMARK   35  A    between atoms: _78  and  _80
REMARK   36  A    between atoms: _80  and  _81
REMARK   37  A    between atoms: _80  and  _83
REMARK   38  A    between atoms: _83  and  _84
REMARK   39  A    between atoms: _86  and  _88
REMARK   40  A    between atoms: _88  and  _89
REMARK   41  A    between atoms: _88  and  _91
REMARK   42  A    between atoms: _91  and  _92
REMARK   43  A    between atoms: _94  and  _96
REMARK   44  A    between atoms: _96  and  _97
REMARK   45  A    between atoms: _96  and  _99
REMARK   46  A    between atoms: _99  and  _100
REMARK   47  A    between atoms: _103  and  _105
REMARK   48  A    between atoms: _105  and  _106
REMARK   49  A    between atoms: _109  and  _111
REMARK   50  A    between atoms: _111  and  _112
REMARK   51  A    between atoms: _111  and  _114
REMARK   52  A    between atoms: _114  and  _115
REMARK   53  A    between atoms: _118  and  _120
REMARK   54  A    between atoms: _120  and  _121
REMARK   55  A    between atoms: _120  and  _123
REMARK   56  A    between atoms: _123  and  _124
REMARK   57  A    between atoms: _124  and  _125
REMARK   58  A    between atoms: _125  and  _126
REMARK   59  A    between atoms: _126  and  _127
REMARK   60  A    between atoms: _131  and  _133
REMARK   61  A    between atoms: _133  and  _134
REMARK   62  A    between atoms: _133  and  _136
REMARK   63  A    between atoms: _136  and  _137
REMARK   64  A    between atoms: _140  and  _142
REMARK   65  A    between atoms: _142  and  _143
REMARK   66  A    between atoms: _142  and  _145
REMARK   67  A    between atoms: _145  and  _146
REMARK   68  A    between atoms: _149  and  _151
REMARK   69  A    between atoms: _151  and  _152
REMARK   70  A    between atoms: _151  and  _154
REMARK   71  A    between atoms: _157  and  _159
REMARK   72  A    between atoms: _159  and  _160
REMARK   73  A    between atoms: _159  and  _162
REMARK   74  A    between atoms: _162  and  _163
REMARK   75  A    between atoms: _166  and  _168
REMARK   76  A    between atoms: _168  and  _169
REMARK   77  A    between atoms: _168  and  _171
REMARK   78  A    between atoms: _171  and  _172
REMARK   79  A    between atoms: _175  and  _177
REMARK   80  A    between atoms: _177  and  _178
REMARK   81  A    between atoms: _180  and  _182
REMARK   82  A    between atoms: _182  and  _183
REMARK   83  A    between atoms: _182  and  _185
REMARK   84  A    between atoms: _185  and  _186
REMARK   85  A    between atoms: _189  and  _191
REMARK   86  A    between atoms: _191  and  _192
REMARK   87  A    between atoms: _194  and  _196
REMARK   88  A    between atoms: _196  and  _197
REMARK   89  A    between atoms: _196  and  _199
REMARK   90  A    between atoms: _199  and  _200
REMARK   91  A    between atoms: _200  and  _201
REMARK   92  A    between atoms: _203  and  _205
REMARK   93  A    between atoms: _205  and  _206
REMARK   94  A    between atoms: _205  and  _208
REMARK   95  A    between atoms: _208  and  _209
REMARK   96  A    between atoms: _212  and  _214
REMARK   97  A    between atoms: _214  and  _215
REMARK   98  A    between atoms: _214  and  _217
REMARK   99  A    between atoms: _217  and  _218
REMARK  100  A    between atoms: _221  and  _223
REMARK  101  A    between atoms: _223  and  _224
REMARK  102  A    between atoms: _223  and  _226
REMARK  103  A    between atoms: _226  and  _227
REMARK  104  A    between atoms: _230  and  _232
REMARK  105  A    between atoms: _232  and  _233
REMARK  106  A    between atoms: _232  and  _235
REMARK  107  A    between atoms: _235  and  _236
REMARK  108  A    between atoms: _239  and  _241
REMARK  109  A    between atoms: _241  and  _242
REMARK  110  A    between atoms: _241  and  _244
REMARK  111  A    between atoms: _244  and  _245
REMARK  112  A    between atoms: _250  and  _252
REMARK  113  A    between atoms: _252  and  _253
REMARK  114  A    between atoms: _252  and  _255
REMARK  115  A    between atoms: _255  and  _256
REMARK  116  A    between atoms: _259  and  _261
REMARK  117  A    between atoms: _261  and  _262
REMARK  118  A    between atoms: _264  and  _266
REMARK  119  A    between atoms: _266  and  _267
REMARK  120  A    between atoms: _270  and  _272
REMARK  121  A    between atoms: _272  and  _273
REMARK  122  A    between atoms: _275  and  _277
REMARK  123  A    between atoms: _277  and  _278
REMARK  124  A    between atoms: _277  and  _280
REMARK  125  A    between atoms: _283  and  _285
REMARK  126  A    between atoms: _285  and  _286
REMARK  127  A    between atoms: _288  and  _290
REMARK  128  A    between atoms: _290  and  _291
REMARK  129  A    between atoms: _290  and  _293
REMARK  130  A    between atoms: _293  and  _294
REMARK  131  A    between atoms: _300  and  _302
REMARK  132  A    between atoms: _302  and  _303
REMARK  133  A    between atoms: _302  and  _305
REMARK  134  A    between atoms: _305  and  _306
REMARK  135  A    between atoms: _311  and  _312
REMARK  136  A    between atoms: _314  and  _316
REMARK  137  A    between atoms: _316  and  _317
REMARK  138  A    between atoms: _316  and  _319
REMARK  139  A    between atoms: _319  and  _320
REMARK  140  A    between atoms: _325  and  _326
REMARK  141  A    between atoms: _328  and  _330
REMARK  142  A    between atoms: _330  and  _331
REMARK  143  A    between atoms: _330  and  _333
REMARK  144  A    between atoms: _336  and  _338
REMARK  145  A    between atoms: _338  and  _339
REMARK  146  A    between atoms: _338  and  _341
REMARK  147  A    between atoms: _341  and  _342
REMARK  148  A    between atoms: _345  and  _347
REMARK  149  A    between atoms: _347  and  _348
REMARK  150  A    between atoms: _347  and  _350
REMARK  151  A    between atoms: _353  and  _355
REMARK  152  A    between atoms: _355  and  _356
REMARK  153  A    between atoms: _355  and  _358
REMARK  154  A    between atoms: _358  and  _359
REMARK  155  A    between atoms: _362  and  _364
REMARK  156  A    between atoms: _364  and  _365
REMARK  157  A    between atoms: _364  and  _367
REMARK  158  A    between atoms: _367  and  _368
REMARK  159  A    between atoms: _371  and  _373
REMARK  160  A    between atoms: _373  and  _374
REMARK  161  A    between atoms: _373  and  _376
REMARK  162  A    between atoms: _376  and  _377
REMARK  163  A    between atoms: _377  and  _378
REMARK  164  A    between atoms: _378  and  _379
REMARK  165  A    between atoms: _379  and  _380
REMARK  166  A    between atoms: _384  and  _386
REMARK  167  A    between atoms: _386  and  _387
REMARK  168  A    between atoms: _386  and  _389
REMARK  169  A    between atoms: _389  and  _390
REMARK  170  A    between atoms: _395  and  _397
REMARK  171  A    between atoms: _397  and  _398
REMARK  172  A    between atoms: _401  and  _403
REMARK  173  A    between atoms: _403  and  _404
REMARK  174  A    between atoms: _403  and  _406
REMARK  175  A    between atoms: _406  and  _407
REMARK  176  A    between atoms: _417  and  _419
REMARK  177  A    between atoms: _419  and  _420
REMARK  178  A    between atoms: _419  and  _422
REMARK  179  A    between atoms: _422  and  _423
REMARK  180  A    between atoms: _423  and  _424
REMARK  181  A    between atoms: _427  and  _429
REMARK  182  A    between atoms: _429  and  _430
REMARK  183  A    between atoms: _429  and  _432
REMARK  184  A    between atoms: _432  and  _433
REMARK  185  A    between atoms: _435  and  _437
REMARK  186  A    between atoms: _437  and  _438
REMARK  187  A    between atoms: _437  and  _440
REMARK  188  A    between atoms: _440  and  _441
REMARK  189  A    between atoms: _447  and  _449
REMARK  190  A    between atoms: _449  and  _450
REMARK  191  A    between atoms: _449  and  _452
REMARK  192  A    between atoms: _452  and  _453
REMARK  193  A    between atoms: _456  and  _458
REMARK  194  A    between atoms: _458  and  _459
REMARK  195  A    between atoms: _458  and  _461
REMARK  196  A    between atoms: _464  and  _466
REMARK  197  A    between atoms: _466  and  _467
REMARK  198  A    between atoms: _469  and  _471
REMARK  199  A    between atoms: _471  and  _472
REMARK  200  A    between atoms: _471  and  _474
REMARK  201  A    between atoms: _474  and  _475
REMARK  202  A    between atoms: _478  and  _480
REMARK  203  A    between atoms: _480  and  _481
REMARK  204  A    between atoms: _480  and  _483
REMARK  205  A    between atoms: _483  and  _484
REMARK  206  A    between atoms: _484  and  _485
REMARK  207  A    between atoms: _485  and  _486
REMARK  208  A    between atoms: _486  and  _487
REMARK  209  A    between atoms: _491  and  _493
REMARK  210  A    between atoms: _493  and  _494
REMARK  211  A    between atoms: _493  and  _496
REMARK  212  A    between atoms: _499  and  _501
REMARK  213  A    between atoms: _501  and  _502
REMARK  214  A    between atoms: _501  and  _504
REMARK  215  A    between atoms: _504  and  _505
REMARK                            x       y       z     vdW  Elec       q    Type
REMARK                         _______ _______ _______ _____ _____    ______ ____
ROOT
ATOM      1  O   HOH     1      -8.765  39.400  22.362  0.00  0.00    +0.000 OA
ENDROOT
TORSDOF 0
REMARK  Name = ../refined-set-2016/3qdd/3qdd_pocket.pdb
REMARK  215 active torsions:
REMARK  status: ('A' for Active; 'I' for Inactive)
REMARK    1  A    between atoms: _1  and  _3
REMARK    2  A    between atoms: _3  and  _4
REMARK    3  A    between atoms: _3  and  _6
REMARK    4  A    between atoms: _6  and  _7
REMARK    5  A    between atoms: _13  and  _15
REMARK    6  A    between atoms: _15  and  _16
REMARK    7  A    between atoms: _15  and  _18
REMARK    8  A    between atoms: _18  and  _19
REMARK    9  A    between atoms: _22  and  _24
REMARK   10  A    between atoms: _24  and  _25
REMARK   11  A    between atoms: _24  and  _27
REMARK   12  A    between atoms: _27  and  _28
REMARK   13  A    between atoms: _28  and  _29
REMARK   14  A    between atoms: _31  and  _33
REMARK   15  A    between atoms: _33  and  _34
REMARK   16  A    between atoms: _33  and  _36
REMARK   17  A    between atoms: _36  and  _37
REMARK   18  A    between atoms: _37  and  _38
REMARK   19  A    between atoms: _41  and  _43
REMARK   20  A    between atoms: _43  and  _44
REMARK   21  A    between atoms: _43  and  _46
REMARK   22  A    between atoms: _46  and  _47
REMARK   23  A    between atoms: _50  and  _52
REMARK   24  A    between atoms: _52  and  _53
REMARK   25  A    between atoms: _52  and  _55
REMARK   26  A    between atoms: _55  and  _56
REMARK   27  A    between atoms: _59  and  _61
REMARK   28  A    between atoms: _61  and  _62
REMARK   29  A    between atoms: _61  and  _64
REMARK   30  A    between atoms: _64  and  _65
REMARK   31  A    between atoms: _67  and  _69
REMARK   32  A    between atoms: _69  and  _70
REMARK   33  A    between atoms: _69  and  _72
REMARK   34  A    between atoms: _72  and  _73
REMARK   35  A    between atoms: _78  and  _80
REMARK   36  A    between atoms: _80  and  _81
REMARK   37  A    between atoms: _80  and  _83
REMARK   38  A    between atoms: _83  and  _84
REMARK   39  A    between atoms: _86  and  _88
REMARK   40  A    between atoms: _88  and  _89
REMARK   41  A    between atoms: _88  and  _91
REMARK   42  A    between atoms: _91  and  _92
REMARK   43  A    between atoms: _94  and  _96
REMARK   44  A    between atoms: _96  and  _97
REMARK   45  A    between atoms: _96  and  _99
REMARK   46  A    between atoms: _99  and  _100
REMARK   47  A    between atoms: _103  and  _105
REMARK   48  A    between atoms: _105  and  _106
REMARK   49  A    between atoms: _109  and  _111
REMARK   50  A    between atoms: _111  and  _112
REMARK   51  A    between atoms: _111  and  _114
REMARK   52  A    between atoms: _114  and  _115
REMARK   53  A    between atoms: _118  and  _120
REMARK   54  A    between atoms: _120  and  _121
REMARK   55  A    between atoms: _120  and  _123
REMARK   56  A    between atoms: _123  and  _124
REMARK   57  A    between atoms: _124  and  _125
REMARK   58  A    between atoms: _125  and  _126
REMARK   59  A    between atoms: _126  and  _127
REMARK   60  A    between atoms: _131  and  _133
REMARK   61  A    between atoms: _133  and  _134
REMARK   62  A    between atoms: _133  and  _136
REMARK   63  A    between atoms: _136  and  _137
REMARK   64  A    between atoms: _140  and  _142
REMARK   65  A    between atoms: _142  and  _143
REMARK   66  A    between atoms: _142  and  _145
REMARK   67  A    between atoms: _145  and  _146
REMARK   68  A    between atoms: _149  and  _151
REMARK   69  A    between atoms: _151  and  _152
REMARK   70  A    between atoms: _151  and  _154
REMARK   71  A    between atoms: _157  and  _159
REMARK   72  A    between atoms: _159  and  _160
REMARK   73  A    between atoms: _159  and  _162
REMARK   74  A    between atoms: _162  and  _163
REMARK   75  A    between atoms: _166  and  _168
REMARK   76  A    between atoms: _168  and  _169
REMARK   77  A    between atoms: _168  and  _171
REMARK   78  A    between atoms: _171  and  _172
REMARK   79  A    between atoms: _175  and  _177
REMARK   80  A    between atoms: _177  and  _178
REMARK   81  A    between atoms: _180  and  _182
REMARK   82  A    between atoms: _182  and  _183
REMARK   83  A    between atoms: _182  and  _185
REMARK   84  A    between atoms: _185  and  _186
REMARK   85  A    between atoms: _189  and  _191
REMARK   86  A    between atoms: _191  and  _192
REMARK   87  A    between atoms: _194  and  _196
REMARK   88  A    between atoms: _196  and  _197
REMARK   89  A    between atoms: _196  and  _199
REMARK   90  A    between atoms: _199  and  _200
REMARK   91  A    between atoms: _200  and  _201
REMARK   92  A    between atoms: _203  and  _205
REMARK   93  A    between atoms: _205  and  _206
REMARK   94  A    between atoms: _205  and  _208
REMARK   95  A    between atoms: _208  and  _209
REMARK   96  A    between atoms: _212  and  _214
REMARK   97  A    between atoms: _214  and  _215
REMARK   98  A    between atoms: _214  and  _217
REMARK   99  A    between atoms: _217  and  _218
REMARK  100  A    between atoms: _221  and  _223
REMARK  101  A    between atoms: _223  and  _224
REMARK  102  A    between atoms: _223  and  _226
REMARK  103  A    between atoms: _226  and  _227
REMARK  104  A    between atoms: _230  and  _232
REMARK  105  A    between atoms: _232  and  _233
REMARK  106  A    between atoms: _232  and  _235
REMARK  107  A    between atoms: _235  and  _236
REMARK  108  A    between atoms: _239  and  _241
REMARK  109  A    between atoms: _241  and  _242
REMARK  110  A    between atoms: _241  and  _244
REMARK  111  A    between atoms: _244  and  _245
REMARK  112  A    between atoms: _250  and  _252
REMARK  113  A    between atoms: _252  and  _253
REMARK  114  A    between atoms: _252  and  _255
REMARK  115  A    between atoms: _255  and  _256
REMARK  116  A    between atoms: _259  and  _261
REMARK  117  A    between atoms: _261  and  _262
REMARK  118  A    between atoms: _264  and  _266
REMARK  119  A    between atoms: _266  and  _267
REMARK  120  A    between atoms: _270  and  _272
REMARK  121  A    between atoms: _272  and  _273
REMARK  122  A    between atoms: _275  and  _277
REMARK  123  A    between atoms: _277  and  _278
REMARK  124  A    between atoms: _277  and  _280
REMARK  125  A    between atoms: _283  and  _285
REMARK  126  A    between atoms: _285  and  _286
REMARK  127  A    between atoms: _288  and  _290
REMARK  128  A    between atoms: _290  and  _291
REMARK  129  A    between atoms: _290  and  _293
REMARK  130  A    between atoms: _293  and  _294
REMARK  131  A    between atoms: _300  and  _302
REMARK  132  A    between atoms: _302  and  _303
REMARK  133  A    between atoms: _302  and  _305
REMARK  134  A    between atoms: _305  and  _306
REMARK  135  A    between atoms: _311  and  _312
REMARK  136  A    between atoms: _314  and  _316
REMARK  137  A    between atoms: _316  and  _317
REMARK  138  A    between atoms: _316  and  _319
REMARK  139  A    between atoms: _319  and  _320
REMARK  140  A    between atoms: _325  and  _326
REMARK  141  A    between atoms: _328  and  _330
REMARK  142  A    between atoms: _330  and  _331
REMARK  143  A    between atoms: _330  and  _333
REMARK  144  A    between atoms: _336  and  _338
REMARK  145  A    between atoms: _338  and  _339
REMARK  146  A    between atoms: _338  and  _341
REMARK  147  A    between atoms: _341  and  _342
REMARK  148  A    between atoms: _345  and  _347
REMARK  149  A    between atoms: _347  and  _348
REMARK  150  A    between atoms: _347  and  _350
REMARK  151  A    between atoms: _353  and  _355
REMARK  152  A    between atoms: _355  and  _356
REMARK  153  A    between atoms: _355  and  _358
REMARK  154  A    between atoms: _358  and  _359
REMARK  155  A    between atoms: _362  and  _364
REMARK  156  A    between atoms: _364  and  _365
REMARK  157  A    between atoms: _364  and  _367
REMARK  158  A    between atoms: _367  and  _368
REMARK  159  A    between atoms: _371  and  _373
REMARK  160  A    between atoms: _373  and  _374
REMARK  161  A    between atoms: _373  and  _376
REMARK  162  A    between atoms: _376  and  _377
REMARK  163  A    between atoms: _377  and  _378
REMARK  164  A    between atoms: _378  and  _379
REMARK  165  A    between atoms: _379  and  _380
REMARK  166  A    between atoms: _384  and  _386
REMARK  167  A    between atoms: _386  and  _387
REMARK  168  A    between atoms: _386  and  _389
REMARK  169  A    between atoms: _389  and  _390
REMARK  170  A    between atoms: _395  and  _397
REMARK  171  A    between atoms: _397  and  _398
REMARK  172  A    between atoms: _401  and  _403
REMARK  173  A    between atoms: _403  and  _404
REMARK  174  A    between atoms: _403  and  _406
REMARK  175  A    between atoms: _406  and  _407
REMARK  176  A    between atoms: _417  and  _419
REMARK  177  A    between atoms: _419  and  _420
REMARK  178  A    between atoms: _419  and  _422
REMARK  179  A    between atoms: _422  and  _423
REMARK  180  A    between atoms: _423  and  _424
REMARK  181  A    between atoms: _427  and  _429
REMARK  182  A    between atoms: _429  and  _430
REMARK  183  A    between atoms: _429  and  _432
REMARK  184  A    between atoms: _432  and  _433
REMARK  185  A    between atoms: _435  and  _437
REMARK  186  A    between atoms: _437  and  _438
REMARK  187  A    between atoms: _437  and  _440
REMARK  188  A    between atoms: _440  and  _441
REMARK  189  A    between atoms: _447  and  _449
REMARK  190  A    between atoms: _449  and  _450
REMARK  191  A    between atoms: _449  and  _452
REMARK  192  A    between atoms: _452  and  _453
REMARK  193  A    between atoms: _456  and  _458
REMARK  194  A    between atoms: _458  and  _459
REMARK  195  A    between atoms: _458  and  _461
REMARK  196  A    between atoms: _464  and  _466
REMARK  197  A    between atoms: _466  and  _467
REMARK  198  A    between atoms: _469  and  _471
REMARK  199  A    between atoms: _471  and  _472
REMARK  200  A    between atoms: _471  and  _474
REMARK  201  A    between atoms: _474  and  _475
REMARK  202  A    between atoms: _478  and  _480
REMARK  203  A    between atoms: _480  and  _481
REMARK  204  A    between atoms: _480  and  _483
REMARK  205  A    between atoms: _483  and  _484
REMARK  206  A    between atoms: _484  and  _485
REMARK  207  A    between atoms: _485  and  _486
REMARK  208  A    between atoms: _486  and  _487
REMARK  209  A    between atoms: _491  and  _493
REMARK  210  A    between atoms: _493  and  _494
REMARK  211  A    between atoms: _493  and  _496
REMARK  212  A    between atoms: _499  and  _501
REMARK  213  A    between atoms: _501  and  _502
REMARK  214  A    between atoms: _501  and  _504
REMARK  215  A    between atoms: _504  and  _505
REMARK                            x       y       z     vdW  Elec       q    Type
REMARK                         _______ _______ _______ _____ _____    ______ ____
ROOT
ATOM      1  O   HOH     1      -4.043  39.574  26.925  0.00  0.00    +0.000 OA
ENDROOT
TORSDOF 0
REMARK  Name = ../refined-set-2016/3qdd/3qdd_pocket.pdb
REMARK  215 active torsions:
REMARK  status: ('A' for Active; 'I' for Inactive)
REMARK    1  A    between atoms: _1  and  _3
REMARK    2  A    between atoms: _3  and  _4
REMARK    3  A    between atoms: _3  and  _6
REMARK    4  A    between atoms: _6  and  _7
REMARK    5  A    between atoms: _13  and  _15
REMARK    6  A    between atoms: _15  and  _16
REMARK    7  A    between atoms: _15  and  _18
REMARK    8  A    between atoms: _18  and  _19
REMARK    9  A    between atoms: _22  and  _24
REMARK   10  A    between atoms: _24  and  _25
REMARK   11  A    between atoms: _24  and  _27
REMARK   12  A    between atoms: _27  and  _28
REMARK   13  A    between atoms: _28  and  _29
REMARK   14  A    between atoms: _31  and  _33
REMARK   15  A    between atoms: _33  and  _34
REMARK   16  A    between atoms: _33  and  _36
REMARK   17  A    between atoms: _36  and  _37
REMARK   18  A    between atoms: _37  and  _38
REMARK   19  A    between atoms: _41  and  _43
REMARK   20  A    between atoms: _43  and  _44
REMARK   21  A    between atoms: _43  and  _46
REMARK   22  A    between atoms: _46  and  _47
REMARK   23  A    between atoms: _50  and  _52
REMARK   24  A    between atoms: _52  and  _53
REMARK   25  A    between atoms: _52  and  _55
REMARK   26  A    between atoms: _55  and  _56
REMARK   27  A    between atoms: _59  and  _61
REMARK   28  A    between atoms: _61  and  _62
REMARK   29  A    between atoms: _61  and  _64
REMARK   30  A    between atoms: _64  and  _65
REMARK   31  A    between atoms: _67  and  _69
REMARK   32  A    between atoms: _69  and  _70
REMARK   33  A    between atoms: _69  and  _72
REMARK   34  A    between atoms: _72  and  _73
REMARK   35  A    between atoms: _78  and  _80
REMARK   36  A    between atoms: _80  and  _81
REMARK   37  A    between atoms: _80  and  _83
REMARK   38  A    between atoms: _83  and  _84
REMARK   39  A    between atoms: _86  and  _88
REMARK   40  A    between atoms: _88  and  _89
REMARK   41  A    between atoms: _88  and  _91
REMARK   42  A    between atoms: _91  and  _92
REMARK   43  A    between atoms: _94  and  _96
REMARK   44  A    between atoms: _96  and  _97
REMARK   45  A    between atoms: _96  and  _99
REMARK   46  A    between atoms: _99  and  _100
REMARK   47  A    between atoms: _103  and  _105
REMARK   48  A    between atoms: _105  and  _106
REMARK   49  A    between atoms: _109  and  _111
REMARK   50  A    between atoms: _111  and  _112
REMARK   51  A    between atoms: _111  and  _114
REMARK   52  A    between atoms: _114  and  _115
REMARK   53  A    between atoms: _118  and  _120
REMARK   54  A    between atoms: _120  and  _121
REMARK   55  A    between atoms: _120  and  _123
REMARK   56  A    between atoms: _123  and  _124
REMARK   57  A    between atoms: _124  and  _125
REMARK   58  A    between atoms: _125  and  _126
REMARK   59  A    between atoms: _126  and  _127
REMARK   60  A    between atoms: _131  and  _133
REMARK   61  A    between atoms: _133  and  _134
REMARK   62  A    between atoms: _133  and  _136
REMARK   63  A    between atoms: _136  and  _137
REMARK   64  A    between atoms: _140  and  _142
REMARK   65  A    between atoms: _142  and  _143
REMARK   66  A    between atoms: _142  and  _145
REMARK   67  A    between atoms: _145  and  _146
REMARK   68  A    between atoms: _149  and  _151
REMARK   69  A    between atoms: _151  and  _152
REMARK   70  A    between atoms: _151  and  _154
REMARK   71  A    between atoms: _157  and  _159
REMARK   72  A    between atoms: _159  and  _160
REMARK   73  A    between atoms: _159  and  _162
REMARK   74  A    between atoms: _162  and  _163
REMARK   75  A    between atoms: _166  and  _168
REMARK   76  A    between atoms: _168  and  _169
REMARK   77  A    between atoms: _168  and  _171
REMARK   78  A    between atoms: _171  and  _172
REMARK   79  A    between atoms: _175  and  _177
REMARK   80  A    between atoms: _177  and  _178
REMARK   81  A    between atoms: _180  and  _182
REMARK   82  A    between atoms: _182  and  _183
REMARK   83  A    between atoms: _182  and  _185
REMARK   84  A    between atoms: _185  and  _186
REMARK   85  A    between atoms: _189  and  _191
REMARK   86  A    between atoms: _191  and  _192
REMARK   87  A    between atoms: _194  and  _196
REMARK   88  A    between atoms: _196  and  _197
REMARK   89  A    between atoms: _196  and  _199
REMARK   90  A    between atoms: _199  and  _200
REMARK   91  A    between atoms: _200  and  _201
REMARK   92  A    between atoms: _203  and  _205
REMARK   93  A    between atoms: _205  and  _206
REMARK   94  A    between atoms: _205  and  _208
REMARK   95  A    between atoms: _208  and  _209
REMARK   96  A    between atoms: _212  and  _214
REMARK   97  A    between atoms: _214  and  _215
REMARK   98  A    between atoms: _214  and  _217
REMARK   99  A    between atoms: _217  and  _218
REMARK  100  A    between atoms: _221  and  _223
REMARK  101  A    between atoms: _223  and  _224
REMARK  102  A    between atoms: _223  and  _226
REMARK  103  A    between atoms: _226  and  _227
REMARK  104  A    between atoms: _230  and  _232
REMARK  105  A    between atoms: _232  and  _233
REMARK  106  A    between atoms: _232  and  _235
REMARK  107  A    between atoms: _235  and  _236
REMARK  108  A    between atoms: _239  and  _241
REMARK  109  A    between atoms: _241  and  _242
REMARK  110  A    between atoms: _241  and  _244
REMARK  111  A    between atoms: _244  and  _245
REMARK  112  A    between atoms: _250  and  _252
REMARK  113  A    between atoms: _252  and  _253
REMARK  114  A    between atoms: _252  and  _255
REMARK  115  A    between atoms: _255  and  _256
REMARK  116  A    between atoms: _259  and  _261
REMARK  117  A    between atoms: _261  and  _262
REMARK  118  A    between atoms: _264  and  _266
REMARK  119  A    between atoms: _266  and  _267
REMARK  120  A    between atoms: _270  and  _272
REMARK  121  A    between atoms: _272  and  _273
REMARK  122  A    between atoms: _275  and  _277
REMARK  123  A    between atoms: _277  and  _278
REMARK  124  A    between atoms: _277  and  _280
REMARK  125  A    between atoms: _283  and  _285
REMARK  126  A    between atoms: _285  and  _286
REMARK  127  A    between atoms: _288  and  _290
REMARK  128  A    between atoms: _290  and  _291
REMARK  129  A    between atoms: _290  and  _293
REMARK  130  A    between atoms: _293  and  _294
REMARK  131  A    between atoms: _300  and  _302
REMARK  132  A    between atoms: _302  and  _303
REMARK  133  A    between atoms: _302  and  _305
REMARK  134  A    between atoms: _305  and  _306
REMARK  135  A    between atoms: _311  and  _312
REMARK  136  A    between atoms: _314  and  _316
REMARK  137  A    between atoms: _316  and  _317
REMARK  138  A    between atoms: _316  and  _319
REMARK  139  A    between atoms: _319  and  _320
REMARK  140  A    between atoms: _325  and  _326
REMARK  141  A    between atoms: _328  and  _330
REMARK  142  A    between atoms: _330  and  _331
REMARK  143  A    between atoms: _330  and  _333
REMARK  144  A    between atoms: _336  and  _338
REMARK  145  A    between atoms: _338  and  _339
REMARK  146  A    between atoms: _338  and  _341
REMARK  147  A    between atoms: _341  and  _342
REMARK  148  A    between atoms: _345  and  _347
REMARK  149  A    between atoms: _347  and  _348
REMARK  150  A    between atoms: _347  and  _350
REMARK  151  A    between atoms: _353  and  _355
REMARK  152  A    between atoms: _355  and  _356
REMARK  153  A    between atoms: _355  and  _358
REMARK  154  A    between atoms: _358  and  _359
REMARK  155  A    between atoms: _362  and  _364
REMARK  156  A    between atoms: _364  and  _365
REMARK  157  A    between atoms: _364  and  _367
REMARK  158  A    between atoms: _367  and  _368
REMARK  159  A    between atoms: _371  and  _373
REMARK  160  A    between atoms: _373  and  _374
REMARK  161  A    between atoms: _373  and  _376
REMARK  162  A    between atoms: _376  and  _377
REMARK  163  A    between atoms: _377  and  _378
REMARK  164  A    between atoms: _378  and  _379
REMARK  165  A    between atoms: _379  and  _380
REMARK  166  A    between atoms: _384  and  _386
REMARK  167  A    between atoms: _386  and  _387
REMARK  168  A    between atoms: _386  and  _389
REMARK  169  A    between atoms: _389  and  _390
REMARK  170  A    between atoms: _395  and  _397
REMARK  171  A    between atoms: _397  and  _398
REMARK  172  A    between atoms: _401  and  _403
REMARK  173  A    between atoms: _403  and  _404
REMARK  174  A    between atoms: _403  and  _406
REMARK  175  A    between atoms: _406  and  _407
REMARK  176  A    between atoms: _417  and  _419
REMARK  177  A    between atoms: _419  and  _420
REMARK  178  A    between atoms: _419  and  _422
REMARK  179  A    between atoms: _422  and  _423
REMARK  180  A    between atoms: _423  and  _424
REMARK  181  A    between atoms: _427  and  _429
REMARK  182  A    between atoms: _429  and  _430
REMARK  183  A    between atoms: _429  and  _432
REMARK  184  A    between atoms: _432  and  _433
REMARK  185  A    between atoms: _435  and  _437
REMARK  186  A    between atoms: _437  and  _438
REMARK  187  A    between atoms: _437  and  _440
REMARK  188  A    between atoms: _440  and  _441
REMARK  189  A    between atoms: _447  and  _449
REMARK  190  A    between atoms: _449  and  _450
REMARK  191  A    between atoms: _449  and  _452
REMARK  192  A    between atoms: _452  and  _453
REMARK  193  A    between atoms: _456  and  _458
REMARK  194  A    between atoms: _458  and  _459
REMARK  195  A    between atoms: _458  and  _461
REMARK  196  A    between atoms: _464  and  _466
REMARK  197  A    between atoms: _466  and  _467
REMARK  198  A    between atoms: _469  and  _471
REMARK  199  A    between atoms: _471  and  _472
REMARK  200  A    between atoms: _471  and  _474
REMARK  201  A    between atoms: _474  and  _475
REMARK  202  A    between atoms: _478  and  _480
REMARK  203  A    between atoms: _480  and  _481
REMARK  204  A    between atoms: _480  and  _483
REMARK  205  A    between atoms: _483  and  _484
REMARK  206  A    between atoms: _484  and  _485
REMARK  207  A    between atoms: _485  and  _486
REMARK  208  A    between atoms: _486  and  _487
REMARK  209  A    between atoms: _491  and  _493
REMARK  210  A    between atoms: _493  and  _494
REMARK  211  A    between atoms: _493  and  _496
REMARK  212  A    between atoms: _499  and  _501
REMARK  213  A    between atoms: _501  and  _502
REMARK  214  A    between atoms: _501  and  _504
REMARK  215  A    between atoms: _504  and  _505
REMARK                            x       y       z     vdW  Elec       q    Type
REMARK                         _______ _______ _______ _____ _____    ______ ____
ROOT
ATOM      1  O   HOH     1      -0.558  39.814  18.898  0.00  0.00    +0.000 OA
ENDROOT
TORSDOF 0
REMARK  Name = ../refined-set-2016/3qdd/3qdd_pocket.pdb
REMARK  215 active torsions:
REMARK  status: ('A' for Active; 'I' for Inactive)
REMARK    1  A    between atoms: _1  and  _3
REMARK    2  A    between atoms: _3  and  _4
REMARK    3  A    between atoms: _3  and  _6
REMARK    4  A    between atoms: _6  and  _7
REMARK    5  A    between atoms: _13  and  _15
REMARK    6  A    between atoms: _15  and  _16
REMARK    7  A    between atoms: _15  and  _18
REMARK    8  A    between atoms: _18  and  _19
REMARK    9  A    between atoms: _22  and  _24
REMARK   10  A    between atoms: _24  and  _25
REMARK   11  A    between atoms: _24  and  _27
REMARK   12  A    between atoms: _27  and  _28
REMARK   13  A    between atoms: _28  and  _29
REMARK   14  A    between atoms: _31  and  _33
REMARK   15  A    between atoms: _33  and  _34
REMARK   16  A    between atoms: _33  and  _36
REMARK   17  A    between atoms: _36  and  _37
REMARK   18  A    between atoms: _37  and  _38
REMARK   19  A    between atoms: _41  and  _43
REMARK   20  A    between atoms: _43  and  _44
REMARK   21  A    between atoms: _43  and  _46
REMARK   22  A    between atoms: _46  and  _47
REMARK   23  A    between atoms: _50  and  _52
REMARK   24  A    between atoms: _52  and  _53
REMARK   25  A    between atoms: _52  and  _55
REMARK   26  A    between atoms: _55  and  _56
REMARK   27  A    between atoms: _59  and  _61
REMARK   28  A    between atoms: _61  and  _62
REMARK   29  A    between atoms: _61  and  _64
REMARK   30  A    between atoms: _64  and  _65
REMARK   31  A    between atoms: _67  and  _69
REMARK   32  A    between atoms: _69  and  _70
REMARK   33  A    between atoms: _69  and  _72
REMARK   34  A    between atoms: _72  and  _73
REMARK   35  A    between atoms: _78  and  _80
REMARK   36  A    between atoms: _80  and  _81
REMARK   37  A    between atoms: _80  and  _83
REMARK   38  A    between atoms: _83  and  _84
REMARK   39  A    between atoms: _86  and  _88
REMARK   40  A    between atoms: _88  and  _89
REMARK   41  A    between atoms: _88  and  _91
REMARK   42  A    between atoms: _91  and  _92
REMARK   43  A    between atoms: _94  and  _96
REMARK   44  A    between atoms: _96  and  _97
REMARK   45  A    between atoms: _96  and  _99
REMARK   46  A    between atoms: _99  and  _100
REMARK   47  A    between atoms: _103  and  _105
REMARK   48  A    between atoms: _105  and  _106
REMARK   49  A    between atoms: _109  and  _111
REMARK   50  A    between atoms: _111  and  _112
REMARK   51  A    between atoms: _111  and  _114
REMARK   52  A    between atoms: _114  and  _115
REMARK   53  A    between atoms: _118  and  _120
REMARK   54  A    between atoms: _120  and  _121
REMARK   55  A    between atoms: _120  and  _123
REMARK   56  A    between atoms: _123  and  _124
REMARK   57  A    between atoms: _124  and  _125
REMARK   58  A    between atoms: _125  and  _126
REMARK   59  A    between atoms: _126  and  _127
REMARK   60  A    between atoms: _131  and  _133
REMARK   61  A    between atoms: _133  and  _134
REMARK   62  A    between atoms: _133  and  _136
REMARK   63  A    between atoms: _136  and  _137
REMARK   64  A    between atoms: _140  and  _142
REMARK   65  A    between atoms: _142  and  _143
REMARK   66  A    between atoms: _142  and  _145
REMARK   67  A    between atoms: _145  and  _146
REMARK   68  A    between atoms: _149  and  _151
REMARK   69  A    between atoms: _151  and  _152
REMARK   70  A    between atoms: _151  and  _154
REMARK   71  A    between atoms: _157  and  _159
REMARK   72  A    between atoms: _159  and  _160
REMARK   73  A    between atoms: _159  and  _162
REMARK   74  A    between atoms: _162  and  _163
REMARK   75  A    between atoms: _166  and  _168
REMARK   76  A    between atoms: _168  and  _169
REMARK   77  A    between atoms: _168  and  _171
REMARK   78  A    between atoms: _171  and  _172
REMARK   79  A    between atoms: _175  and  _177
REMARK   80  A    between atoms: _177  and  _178
REMARK   81  A    between atoms: _180  and  _182
REMARK   82  A    between atoms: _182  and  _183
REMARK   83  A    between atoms: _182  and  _185
REMARK   84  A    between atoms: _185  and  _186
REMARK   85  A    between atoms: _189  and  _191
REMARK   86  A    between atoms: _191  and  _192
REMARK   87  A    between atoms: _194  and  _196
REMARK   88  A    between atoms: _196  and  _197
REMARK   89  A    between atoms: _196  and  _199
REMARK   90  A    between atoms: _199  and  _200
REMARK   91  A    between atoms: _200  and  _201
REMARK   92  A    between atoms: _203  and  _205
REMARK   93  A    between atoms: _205  and  _206
REMARK   94  A    between atoms: _205  and  _208
REMARK   95  A    between atoms: _208  and  _209
REMARK   96  A    between atoms: _212  and  _214
REMARK   97  A    between atoms: _214  and  _215
REMARK   98  A    between atoms: _214  and  _217
REMARK   99  A    between atoms: _217  and  _218
REMARK  100  A    between atoms: _221  and  _223
REMARK  101  A    between atoms: _223  and  _224
REMARK  102  A    between atoms: _223  and  _226
REMARK  103  A    between atoms: _226  and  _227
REMARK  104  A    between atoms: _230  and  _232
REMARK  105  A    between atoms: _232  and  _233
REMARK  106  A    between atoms: _232  and  _235
REMARK  107  A    between atoms: _235  and  _236
REMARK  108  A    between atoms: _239  and  _241
REMARK  109  A    between atoms: _241  and  _242
REMARK  110  A    between atoms: _241  and  _244
REMARK  111  A    between atoms: _244  and  _245
REMARK  112  A    between atoms: _250  and  _252
REMARK  113  A    between atoms: _252  and  _253
REMARK  114  A    between atoms: _252  and  _255
REMARK  115  A    between atoms: _255  and  _256
REMARK  116  A    between atoms: _259  and  _261
REMARK  117  A    between atoms: _261  and  _262
REMARK  118  A    between atoms: _264  and  _266
REMARK  119  A    between atoms: _266  and  _267
REMARK  120  A    between atoms: _270  and  _272
REMARK  121  A    between atoms: _272  and  _273
REMARK  122  A    between atoms: _275  and  _277
REMARK  123  A    between atoms: _277  and  _278
REMARK  124  A    between atoms: _277  and  _280
REMARK  125  A    between atoms: _283  and  _285
REMARK  126  A    between atoms: _285  and  _286
REMARK  127  A    between atoms: _288  and  _290
REMARK  128  A    between atoms: _290  and  _291
REMARK  129  A    between atoms: _290  and  _293
REMARK  130  A    between atoms: _293  and  _294
REMARK  131  A    between atoms: _300  and  _302
REMARK  132  A    between atoms: _302  and  _303
REMARK  133  A    between atoms: _302  and  _305
REMARK  134  A    between atoms: _305  and  _306
REMARK  135  A    between atoms: _311  and  _312
REMARK  136  A    between atoms: _314  and  _316
REMARK  137  A    between atoms: _316  and  _317
REMARK  138  A    between atoms: _316  and  _319
REMARK  139  A    between atoms: _319  and  _320
REMARK  140  A    between atoms: _325  and  _326
REMARK  141  A    between atoms: _328  and  _330
REMARK  142  A    between atoms: _330  and  _331
REMARK  143  A    between atoms: _330  and  _333
REMARK  144  A    between atoms: _336  and  _338
REMARK  145  A    between atoms: _338  and  _339
REMARK  146  A    between atoms: _338  and  _341
REMARK  147  A    between atoms: _341  and  _342
REMARK  148  A    between atoms: _345  and  _347
REMARK  149  A    between atoms: _347  and  _348
REMARK  150  A    between atoms: _347  and  _350
REMARK  151  A    between atoms: _353  and  _355
REMARK  152  A    between atoms: _355  and  _356
REMARK  153  A    between atoms: _355  and  _358
REMARK  154  A    between atoms: _358  and  _359
REMARK  155  A    between atoms: _362  and  _364
REMARK  156  A    between atoms: _364  and  _365
REMARK  157  A    between atoms: _364  and  _367
REMARK  158  A    between atoms: _367  and  _368
REMARK  159  A    between atoms: _371  and  _373
REMARK  160  A    between atoms: _373  and  _374
REMARK  161  A    between atoms: _373  and  _376
REMARK  162  A    between atoms: _376  and  _377
REMARK  163  A    between atoms: _377  and  _378
REMARK  164  A    between atoms: _378  and  _379
REMARK  165  A    between atoms: _379  and  _380
REMARK  166  A    between atoms: _384  and  _386
REMARK  167  A    between atoms: _386  and  _387
REMARK  168  A    between atoms: _386  and  _389
REMARK  169  A    between atoms: _389  and  _390
REMARK  170  A    between atoms: _395  and  _397
REMARK  171  A    between atoms: _397  and  _398
REMARK  172  A    between atoms: _401  and  _403
REMARK  173  A    between atoms: _403  and  _404
REMARK  174  A    between atoms: _403  and  _406
REMARK  175  A    between atoms: _406  and  _407
REMARK  176  A    between atoms: _417  and  _419
REMARK  177  A    between atoms: _419  and  _420
REMARK  178  A    between atoms: _419  and  _422
REMARK  179  A    between atoms: _422  and  _423
REMARK  180  A    between atoms: _423  and  _424
REMARK  181  A    between atoms: _427  and  _429
REMARK  182  A    between atoms: _429  and  _430
REMARK  183  A    between atoms: _429  and  _432
REMARK  184  A    between atoms: _432  and  _433
REMARK  185  A    between atoms: _435  and  _437
REMARK  186  A    between atoms: _437  and  _438
REMARK  187  A    between atoms: _437  and  _440
REMARK  188  A    between atoms: _440  and  _441
REMARK  189  A    between atoms: _447  and  _449
REMARK  190  A    between atoms: _449  and  _450
REMARK  191  A    between atoms: _449  and  _452
REMARK  192  A    between atoms: _452  and  _453
REMARK  193  A    between atoms: _456  and  _458
REMARK  194  A    between atoms: _458  and  _459
REMARK  195  A    between atoms: _458  and  _461
REMARK  196  A    between atoms: _464  and  _466
REMARK  197  A    between atoms: _466  and  _467
REMARK  198  A    between atoms: _469  and  _471
REMARK  199  A    between atoms: _471  and  _472
REMARK  200  A    between atoms: _471  and  _474
REMARK  201  A    between atoms: _474  and  _475
REMARK  202  A    between atoms: _478  and  _480
REMARK  203  A    between atoms: _480  and  _481
REMARK  204  A    between atoms: _480  and  _483
REMARK  205  A    between atoms: _483  and  _484
REMARK  206  A    between atoms: _484  and  _485
REMARK  207  A    between atoms: _485  and  _486
REMARK  208  A    between atoms: _486  and  _487
REMARK  209  A    between atoms: _491  and  _493
REMARK  210  A    between atoms: _493  and  _494
REMARK  211  A    between atoms: _493  and  _496
REMARK  212  A    between atoms: _499  and  _501
REMARK  213  A    between atoms: _501  and  _502
REMARK  214  A    between atoms: _501  and  _504
REMARK  215  A    between atoms: _504  and  _505
REMARK                            x       y       z     vdW  Elec       q    Type
REMARK                         _______ _______ _______ _____ _____    ______ ____
ROOT
ATOM      1  O   HOH     1      -6.967  39.706  26.531  0.00  0.00    +0.000 OA
ENDROOT
TORSDOF 0
REMARK  Name = ../refined-set-2016/3qdd/3qdd_pocket.pdb
REMARK  215 active torsions:
REMARK  status: ('A' for Active; 'I' for Inactive)
REMARK    1  A    between atoms: _1  and  _3
REMARK    2  A    between atoms: _3  and  _4
REMARK    3  A    between atoms: _3  and  _6
REMARK    4  A    between atoms: _6  and  _7
REMARK    5  A    between atoms: _13  and  _15
REMARK    6  A    between atoms: _15  and  _16
REMARK    7  A    between atoms: _15  and  _18
REMARK    8  A    between atoms: _18  and  _19
REMARK    9  A    between atoms: _22  and  _24
REMARK   10  A    between atoms: _24  and  _25
REMARK   11  A    between atoms: _24  and  _27
REMARK   12  A    between atoms: _27  and  _28
REMARK   13  A    between atoms: _28  and  _29
REMARK   14  A    between atoms: _31  and  _33
REMARK   15  A    between atoms: _33  and  _34
REMARK   16  A    between atoms: _33  and  _36
REMARK   17  A    between atoms: _36  and  _37
REMARK   18  A    between atoms: _37  and  _38
REMARK   19  A    between atoms: _41  and  _43
REMARK   20  A    between atoms: _43  and  _44
REMARK   21  A    between atoms: _43  and  _46
REMARK   22  A    between atoms: _46  and  _47
REMARK   23  A    between atoms: _50  and  _52
REMARK   24  A    between atoms: _52  and  _53
REMARK   25  A    between atoms: _52  and  _55
REMARK   26  A    between atoms: _55  and  _56
REMARK   27  A    between atoms: _59  and  _61
REMARK   28  A    between atoms: _61  and  _62
REMARK   29  A    between atoms: _61  and  _64
REMARK   30  A    between atoms: _64  and  _65
REMARK   31  A    between atoms: _67  and  _69
REMARK   32  A    between atoms: _69  and  _70
REMARK   33  A    between atoms: _69  and  _72
REMARK   34  A    between atoms: _72  and  _73
REMARK   35  A    between atoms: _78  and  _80
REMARK   36  A    between atoms: _80  and  _81
REMARK   37  A    between atoms: _80  and  _83
REMARK   38  A    between atoms: _83  and  _84
REMARK   39  A    between atoms: _86  and  _88
REMARK   40  A    between atoms: _88  and  _89
REMARK   41  A    between atoms: _88  and  _91
REMARK   42  A    between atoms: _91  and  _92
REMARK   43  A    between atoms: _94  and  _96
REMARK   44  A    between atoms: _96  and  _97
REMARK   45  A    between atoms: _96  and  _99
REMARK   46  A    between atoms: _99  and  _100
REMARK   47  A    between atoms: _103  and  _105
REMARK   48  A    between atoms: _105  and  _106
REMARK   49  A    between atoms: _109  and  _111
REMARK   50  A    between atoms: _111  and  _112
REMARK   51  A    between atoms: _111  and  _114
REMARK   52  A    between atoms: _114  and  _115
REMARK   53  A    between atoms: _118  and  _120
REMARK   54  A    between atoms: _120  and  _121
REMARK   55  A    between atoms: _120  and  _123
REMARK   56  A    between atoms: _123  and  _124
REMARK   57  A    between atoms: _124  and  _125
REMARK   58  A    between atoms: _125  and  _126
REMARK   59  A    between atoms: _126  and  _127
REMARK   60  A    between atoms: _131  and  _133
REMARK   61  A    between atoms: _133  and  _134
REMARK   62  A    between atoms: _133  and  _136
REMARK   63  A    between atoms: _136  and  _137
REMARK   64  A    between atoms: _140  and  _142
REMARK   65  A    between atoms: _142  and  _143
REMARK   66  A    between atoms: _142  and  _145
REMARK   67  A    between atoms: _145  and  _146
REMARK   68  A    between atoms: _149  and  _151
REMARK   69  A    between atoms: _151  and  _152
REMARK   70  A    between atoms: _151  and  _154
REMARK   71  A    between atoms: _157  and  _159
REMARK   72  A    between atoms: _159  and  _160
REMARK   73  A    between atoms: _159  and  _162
REMARK   74  A    between atoms: _162  and  _163
REMARK   75  A    between atoms: _166  and  _168
REMARK   76  A    between atoms: _168  and  _169
REMARK   77  A    between atoms: _168  and  _171
REMARK   78  A    between atoms: _171  and  _172
REMARK   79  A    between atoms: _175  and  _177
REMARK   80  A    between atoms: _177  and  _178
REMARK   81  A    between atoms: _180  and  _182
REMARK   82  A    between atoms: _182  and  _183
REMARK   83  A    between atoms: _182  and  _185
REMARK   84  A    between atoms: _185  and  _186
REMARK   85  A    between atoms: _189  and  _191
REMARK   86  A    between atoms: _191  and  _192
REMARK   87  A    between atoms: _194  and  _196
REMARK   88  A    between atoms: _196  and  _197
REMARK   89  A    between atoms: _196  and  _199
REMARK   90  A    between atoms: _199  and  _200
REMARK   91  A    between atoms: _200  and  _201
REMARK   92  A    between atoms: _203  and  _205
REMARK   93  A    between atoms: _205  and  _206
REMARK   94  A    between atoms: _205  and  _208
REMARK   95  A    between atoms: _208  and  _209
REMARK   96  A    between atoms: _212  and  _214
REMARK   97  A    between atoms: _214  and  _215
REMARK   98  A    between atoms: _214  and  _217
REMARK   99  A    between atoms: _217  and  _218
REMARK  100  A    between atoms: _221  and  _223
REMARK  101  A    between atoms: _223  and  _224
REMARK  102  A    between atoms: _223  and  _226
REMARK  103  A    between atoms: _226  and  _227
REMARK  104  A    between atoms: _230  and  _232
REMARK  105  A    between atoms: _232  and  _233
REMARK  106  A    between atoms: _232  and  _235
REMARK  107  A    between atoms: _235  and  _236
REMARK  108  A    between atoms: _239  and  _241
REMARK  109  A    between atoms: _241  and  _242
REMARK  110  A    between atoms: _241  and  _244
REMARK  111  A    between atoms: _244  and  _245
REMARK  112  A    between atoms: _250  and  _252
REMARK  113  A    between atoms: _252  and  _253
REMARK  114  A    between atoms: _252  and  _255
REMARK  115  A    between atoms: _255  and  _256
REMARK  116  A    between atoms: _259  and  _261
REMARK  117  A    between atoms: _261  and  _262
REMARK  118  A    between atoms: _264  and  _266
REMARK  119  A    between atoms: _266  and  _267
REMARK  120  A    between atoms: _270  and  _272
REMARK  121  A    between atoms: _272  and  _273
REMARK  122  A    between atoms: _275  and  _277
REMARK  123  A    between atoms: _277  and  _278
REMARK  124  A    between atoms: _277  and  _280
REMARK  125  A    between atoms: _283  and  _285
REMARK  126  A    between atoms: _285  and  _286
REMARK  127  A    between atoms: _288  and  _290
REMARK  128  A    between atoms: _290  and  _291
REMARK  129  A    between atoms: _290  and  _293
REMARK  130  A    between atoms: _293  and  _294
REMARK  131  A    between atoms: _300  and  _302
REMARK  132  A    between atoms: _302  and  _303
REMARK  133  A    between atoms: _302  and  _305
REMARK  134  A    between atoms: _305  and  _306
REMARK  135  A    between atoms: _311  and  _312
REMARK  136  A    between atoms: _314  and  _316
REMARK  137  A    between atoms: _316  and  _317
REMARK  138  A    between atoms: _316  and  _319
REMARK  139  A    between atoms: _319  and  _320
REMARK  140  A    between atoms: _325  and  _326
REMARK  141  A    between atoms: _328  and  _330
REMARK  142  A    between atoms: _330  and  _331
REMARK  143  A    between atoms: _330  and  _333
REMARK  144  A    between atoms: _336  and  _338
REMARK  145  A    between atoms: _338  and  _339
REMARK  146  A    between atoms: _338  and  _341
REMARK  147  A    between atoms: _341  and  _342
REMARK  148  A    between atoms: _345  and  _347
REMARK  149  A    between atoms: _347  and  _348
REMARK  150  A    between atoms: _347  and  _350
REMARK  151  A    between atoms: _353  and  _355
REMARK  152  A    between atoms: _355  and  _356
REMARK  153  A    between atoms: _355  and  _358
REMARK  154  A    between atoms: _358  and  _359
REMARK  155  A    between atoms: _362  and  _364
REMARK  156  A    between atoms: _364  and  _365
REMARK  157  A    between atoms: _364  and  _367
REMARK  158  A    between atoms: _367  and  _368
REMARK  159  A    between atoms: _371  and  _373
REMARK  160  A    between atoms: _373  and  _374
REMARK  161  A    between atoms: _373  and  _376
REMARK  162  A    between atoms: _376  and  _377
REMARK  163  A    between atoms: _377  and  _378
REMARK  164  A    between atoms: _378  and  _379
REMARK  165  A    between atoms: _379  and  _380
REMARK  166  A    between atoms: _384  and  _386
REMARK  167  A    between atoms: _386  and  _387
REMARK  168  A    between atoms: _386  and  _389
REMARK  169  A    between atoms: _389  and  _390
REMARK  170  A    between atoms: _395  and  _397
REMARK  171  A    between atoms: _397  and  _398
REMARK  172  A    between atoms: _401  and  _403
REMARK  173  A    between atoms: _403  and  _404
REMARK  174  A    between atoms: _403  and  _406
REMARK  175  A    between atoms: _406  and  _407
REMARK  176  A    between atoms: _417  and  _419
REMARK  177  A    between atoms: _419  and  _420
REMARK  178  A    between atoms: _419  and  _422
REMARK  179  A    between atoms: _422  and  _423
REMARK  180  A    between atoms: _423  and  _424
REMARK  181  A    between atoms: _427  and  _429
REMARK  182  A    between atoms: _429  and  _430
REMARK  183  A    between atoms: _429  and  _432
REMARK  184  A    between atoms: _432  and  _433
REMARK  185  A    between atoms: _435  and  _437
REMARK  186  A    between atoms: _437  and  _438
REMARK  187  A    between atoms: _437  and  _440
REMARK  188  A    between atoms: _440  and  _441
REMARK  189  A    between atoms: _447  and  _449
REMARK  190  A    between atoms: _449  and  _450
REMARK  191  A    between atoms: _449  and  _452
REMARK  192  A    between atoms: _452  and  _453
REMARK  193  A    between atoms: _456  and  _458
REMARK  194  A    between atoms: _458  and  _459
REMARK  195  A    between atoms: _458  and  _461
REMARK  196  A    between atoms: _464  and  _466
REMARK  197  A    between atoms: _466  and  _467
REMARK  198  A    between atoms: _469  and  _471
REMARK  199  A    between atoms: _471  and  _472
REMARK  200  A    between atoms: _471  and  _474
REMARK  201  A    between atoms: _474  and  _475
REMARK  202  A    between atoms: _478  and  _480
REMARK  203  A    between atoms: _480  and  _481
REMARK  204  A    between atoms: _480  and  _483
REMARK  205  A    between atoms: _483  and  _484
REMARK  206  A    between atoms: _484  and  _485
REMARK  207  A    between atoms: _485  and  _486
REMARK  208  A    between atoms: _486  and  _487
REMARK  209  A    between atoms: _491  and  _493
REMARK  210  A    between atoms: _493  and  _494
REMARK  211  A    between atoms: _493  and  _496
REMARK  212  A    between atoms: _499  and  _501
REMARK  213  A    between atoms: _501  and  _502
REMARK  214  A    between atoms: _501  and  _504
REMARK  215  A    between atoms: _504  and  _505
REMARK                            x       y       z     vdW  Elec       q    Type
REMARK                         _______ _______ _______ _____ _____    ______ ____
ROOT
ATOM      1  O   HOH     1      -0.185  40.040  34.052  0.00  0.00    +0.000 OA
ENDROOT
TORSDOF 0
REMARK  Name = ../refined-set-2016/3qdd/3qdd_pocket.pdb
REMARK  215 active torsions:
REMARK  status: ('A' for Active; 'I' for Inactive)
REMARK    1  A    between atoms: _1  and  _3
REMARK    2  A    between atoms: _3  and  _4
REMARK    3  A    between atoms: _3  and  _6
REMARK    4  A    between atoms: _6  and  _7
REMARK    5  A    between atoms: _13  and  _15
REMARK    6  A    between atoms: _15  and  _16
REMARK    7  A    between atoms: _15  and  _18
REMARK    8  A    between atoms: _18  and  _19
REMARK    9  A    between atoms: _22  and  _24
REMARK   10  A    between atoms: _24  and  _25
REMARK   11  A    between atoms: _24  and  _27
REMARK   12  A    between atoms: _27  and  _28
REMARK   13  A    between atoms: _28  and  _29
REMARK   14  A    between atoms: _31  and  _33
REMARK   15  A    between atoms: _33  and  _34
REMARK   16  A    between atoms: _33  and  _36
REMARK   17  A    between atoms: _36  and  _37
REMARK   18  A    between atoms: _37  and  _38
REMARK   19  A    between atoms: _41  and  _43
REMARK   20  A    between atoms: _43  and  _44
REMARK   21  A    between atoms: _43  and  _46
REMARK   22  A    between atoms: _46  and  _47
REMARK   23  A    between atoms: _50  and  _52
REMARK   24  A    between atoms: _52  and  _53
REMARK   25  A    between atoms: _52  and  _55
REMARK   26  A    between atoms: _55  and  _56
REMARK   27  A    between atoms: _59  and  _61
REMARK   28  A    between atoms: _61  and  _62
REMARK   29  A    between atoms: _61  and  _64
REMARK   30  A    between atoms: _64  and  _65
REMARK   31  A    between atoms: _67  and  _69
REMARK   32  A    between atoms: _69  and  _70
REMARK   33  A    between atoms: _69  and  _72
REMARK   34  A    between atoms: _72  and  _73
REMARK   35  A    between atoms: _78  and  _80
REMARK   36  A    between atoms: _80  and  _81
REMARK   37  A    between atoms: _80  and  _83
REMARK   38  A    between atoms: _83  and  _84
REMARK   39  A    between atoms: _86  and  _88
REMARK   40  A    between atoms: _88  and  _89
REMARK   41  A    between atoms: _88  and  _91
REMARK   42  A    between atoms: _91  and  _92
REMARK   43  A    between atoms: _94  and  _96
REMARK   44  A    between atoms: _96  and  _97
REMARK   45  A    between atoms: _96  and  _99
REMARK   46  A    between atoms: _99  and  _100
REMARK   47  A    between atoms: _103  and  _105
REMARK   48  A    between atoms: _105  and  _106
REMARK   49  A    between atoms: _109  and  _111
REMARK   50  A    between atoms: _111  and  _112
REMARK   51  A    between atoms: _111  and  _114
REMARK   52  A    between atoms: _114  and  _115
REMARK   53  A    between atoms: _118  and  _120
REMARK   54  A    between atoms: _120  and  _121
REMARK   55  A    between atoms: _120  and  _123
REMARK   56  A    between atoms: _123  and  _124
REMARK   57  A    between atoms: _124  and  _125
REMARK   58  A    between atoms: _125  and  _126
REMARK   59  A    between atoms: _126  and  _127
REMARK   60  A    between atoms: _131  and  _133
REMARK   61  A    between atoms: _133  and  _134
REMARK   62  A    between atoms: _133  and  _136
REMARK   63  A    between atoms: _136  and  _137
REMARK   64  A    between atoms: _140  and  _142
REMARK   65  A    between atoms: _142  and  _143
REMARK   66  A    between atoms: _142  and  _145
REMARK   67  A    between atoms: _145  and  _146
REMARK   68  A    between atoms: _149  and  _151
REMARK   69  A    between atoms: _151  and  _152
REMARK   70  A    between atoms: _151  and  _154
REMARK   71  A    between atoms: _157  and  _159
REMARK   72  A    between atoms: _159  and  _160
REMARK   73  A    between atoms: _159  and  _162
REMARK   74  A    between atoms: _162  and  _163
REMARK   75  A    between atoms: _166  and  _168
REMARK   76  A    between atoms: _168  and  _169
REMARK   77  A    between atoms: _168  and  _171
REMARK   78  A    between atoms: _171  and  _172
REMARK   79  A    between atoms: _175  and  _177
REMARK   80  A    between atoms: _177  and  _178
REMARK   81  A    between atoms: _180  and  _182
REMARK   82  A    between atoms: _182  and  _183
REMARK   83  A    between atoms: _182  and  _185
REMARK   84  A    between atoms: _185  and  _186
REMARK   85  A    between atoms: _189  and  _191
REMARK   86  A    between atoms: _191  and  _192
REMARK   87  A    between atoms: _194  and  _196
REMARK   88  A    between atoms: _196  and  _197
REMARK   89  A    between atoms: _196  and  _199
REMARK   90  A    between atoms: _199  and  _200
REMARK   91  A    between atoms: _200  and  _201
REMARK   92  A    between atoms: _203  and  _205
REMARK   93  A    between atoms: _205  and  _206
REMARK   94  A    between atoms: _205  and  _208
REMARK   95  A    between atoms: _208  and  _209
REMARK   96  A    between atoms: _212  and  _214
REMARK   97  A    between atoms: _214  and  _215
REMARK   98  A    between atoms: _214  and  _217
REMARK   99  A    between atoms: _217  and  _218
REMARK  100  A    between atoms: _221  and  _223
REMARK  101  A    between atoms: _223  and  _224
REMARK  102  A    between atoms: _223  and  _226
REMARK  103  A    between atoms: _226  and  _227
REMARK  104  A    between atoms: _230  and  _232
REMARK  105  A    between atoms: _232  and  _233
REMARK  106  A    between atoms: _232  and  _235
REMARK  107  A    between atoms: _235  and  _236
REMARK  108  A    between atoms: _239  and  _241
REMARK  109  A    between atoms: _241  and  _242
REMARK  110  A    between atoms: _241  and  _244
REMARK  111  A    between atoms: _244  and  _245
REMARK  112  A    between atoms: _250  and  _252
REMARK  113  A    between atoms: _252  and  _253
REMARK  114  A    between atoms: _252  and  _255
REMARK  115  A    between atoms: _255  and  _256
REMARK  116  A    between atoms: _259  and  _261
REMARK  117  A    between atoms: _261  and  _262
REMARK  118  A    between atoms: _264  and  _266
REMARK  119  A    between atoms: _266  and  _267
REMARK  120  A    between atoms: _270  and  _272
REMARK  121  A    between atoms: _272  and  _273
REMARK  122  A    between atoms: _275  and  _277
REMARK  123  A    between atoms: _277  and  _278
REMARK  124  A    between atoms: _277  and  _280
REMARK  125  A    between atoms: _283  and  _285
REMARK  126  A    between atoms: _285  and  _286
REMARK  127  A    between atoms: _288  and  _290
REMARK  128  A    between atoms: _290  and  _291
REMARK  129  A    between atoms: _290  and  _293
REMARK  130  A    between atoms: _293  and  _294
REMARK  131  A    between atoms: _300  and  _302
REMARK  132  A    between atoms: _302  and  _303
REMARK  133  A    between atoms: _302  and  _305
REMARK  134  A    between atoms: _305  and  _306
REMARK  135  A    between atoms: _311  and  _312
REMARK  136  A    between atoms: _314  and  _316
REMARK  137  A    between atoms: _316  and  _317
REMARK  138  A    between atoms: _316  and  _319
REMARK  139  A    between atoms: _319  and  _320
REMARK  140  A    between atoms: _325  and  _326
REMARK  141  A    between atoms: _328  and  _330
REMARK  142  A    between atoms: _330  and  _331
REMARK  143  A    between atoms: _330  and  _333
REMARK  144  A    between atoms: _336  and  _338
REMARK  145  A    between atoms: _338  and  _339
REMARK  146  A    between atoms: _338  and  _341
REMARK  147  A    between atoms: _341  and  _342
REMARK  148  A    between atoms: _345  and  _347
REMARK  149  A    between atoms: _347  and  _348
REMARK  150  A    between atoms: _347  and  _350
REMARK  151  A    between atoms: _353  and  _355
REMARK  152  A    between atoms: _355  and  _356
REMARK  153  A    between atoms: _355  and  _358
REMARK  154  A    between atoms: _358  and  _359
REMARK  155  A    between atoms: _362  and  _364
REMARK  156  A    between atoms: _364  and  _365
REMARK  157  A    between atoms: _364  and  _367
REMARK  158  A    between atoms: _367  and  _368
REMARK  159  A    between atoms: _371  and  _373
REMARK  160  A    between atoms: _373  and  _374
REMARK  161  A    between atoms: _373  and  _376
REMARK  162  A    between atoms: _376  and  _377
REMARK  163  A    between atoms: _377  and  _378
REMARK  164  A    between atoms: _378  and  _379
REMARK  165  A    between atoms: _379  and  _380
REMARK  166  A    between atoms: _384  and  _386
REMARK  167  A    between atoms: _386  and  _387
REMARK  168  A    between atoms: _386  and  _389
REMARK  169  A    between atoms: _389  and  _390
REMARK  170  A    between atoms: _395  and  _397
REMARK  171  A    between atoms: _397  and  _398
REMARK  172  A    between atoms: _401  and  _403
REMARK  173  A    between atoms: _403  and  _404
REMARK  174  A    between atoms: _403  and  _406
REMARK  175  A    between atoms: _406  and  _407
REMARK  176  A    between atoms: _417  and  _419
REMARK  177  A    between atoms: _419  and  _420
REMARK  178  A    between atoms: _419  and  _422
REMARK  179  A    between atoms: _422  and  _423
REMARK  180  A    between atoms: _423  and  _424
REMARK  181  A    between atoms: _427  and  _429
REMARK  182  A    between atoms: _429  and  _430
REMARK  183  A    between atoms: _429  and  _432
REMARK  184  A    between atoms: _432  and  _433
REMARK  185  A    between atoms: _435  and  _437
REMARK  186  A    between atoms: _437  and  _438
REMARK  187  A    between atoms: _437  and  _440
REMARK  188  A    between atoms: _440  and  _441
REMARK  189  A    between atoms: _447  and  _449
REMARK  190  A    between atoms: _449  and  _450
REMARK  191  A    between atoms: _449  and  _452
REMARK  192  A    between atoms: _452  and  _453
REMARK  193  A    between atoms: _456  and  _458
REMARK  194  A    between atoms: _458  and  _459
REMARK  195  A    between atoms: _458  and  _461
REMARK  196  A    between atoms: _464  and  _466
REMARK  197  A    between atoms: _466  and  _467
REMARK  198  A    between atoms: _469  and  _471
REMARK  199  A    between atoms: _471  and  _472
REMARK  200  A    between atoms: _471  and  _474
REMARK  201  A    between atoms: _474  and  _475
REMARK  202  A    between atoms: _478  and  _480
REMARK  203  A    between atoms: _480  and  _481
REMARK  204  A    between atoms: _480  and  _483
REMARK  205  A    between atoms: _483  and  _484
REMARK  206  A    between atoms: _484  and  _485
REMARK  207  A    between atoms: _485  and  _486
REMARK  208  A    between atoms: _486  and  _487
REMARK  209  A    between atoms: _491  and  _493
REMARK  210  A    between atoms: _493  and  _494
REMARK  211  A    between atoms: _493  and  _496
REMARK  212  A    between atoms: _499  and  _501
REMARK  213  A    between atoms: _501  and  _502
REMARK  214  A    between atoms: _501  and  _504
REMARK  215  A    between atoms: _504  and  _505
REMARK                            x       y       z     vdW  Elec       q    Type
REMARK                         _______ _______ _______ _____ _____    ______ ____
ROOT
ATOM      1  O   HOH     1      -8.044  37.798  24.454  0.00  0.00    +0.000 OA
ENDROOT
TORSDOF 0
