REMARK  Name = ../refined-set-2016/1ex8/1ex8_pocket.pdb
REMARK  257 active torsions:
REMARK  status: ('A' for Active; 'I' for Inactive)
REMARK    1  A    between atoms: _1  and  _3
REMARK    2  A    between atoms: _3  and  _4
REMARK    3  A    between atoms: _3  and  _6
REMARK    4  A    between atoms: _6  and  _7
REMARK    5  A    between atoms: _12  and  _13
REMARK    6  A    between atoms: _15  and  _17
REMARK    7  A    between atoms: _17  and  _18
REMARK    8  A    between atoms: _17  and  _20
REMARK    9  A    between atoms: _20  and  _21
REMARK   10  A    between atoms: _24  and  _26
REMARK   11  A    between atoms: _26  and  _27
REMARK   12  A    between atoms: _30  and  _32
REMARK   13  A    between atoms: _32  and  _33
REMARK   14  A    between atoms: _32  and  _35
REMARK   15  A    between atoms: _35  and  _36
REMARK   16  A    between atoms: _39  and  _41
REMARK   17  A    between atoms: _41  and  _42
REMARK   18  A    between atoms: _44  and  _46
REMARK   19  A    between atoms: _46  and  _47
REMARK   20  A    between atoms: _46  and  _49
REMARK   21  A    between atoms: _49  and  _50
REMARK   22  A    between atoms: _52  and  _54
REMARK   23  A    between atoms: _54  and  _55
REMARK   24  A    between atoms: _54  and  _57
REMARK   25  A    between atoms: _57  and  _58
REMARK   26  A    between atoms: _63  and  _65
REMARK   27  A    between atoms: _65  and  _66
REMARK   28  A    between atoms: _65  and  _68
REMARK   29  A    between atoms: _68  and  _69
REMARK   30  A    between atoms: _74  and  _75
REMARK   31  A    between atoms: _77  and  _79
REMARK   32  A    between atoms: _79  and  _80
REMARK   33  A    between atoms: _79  and  _82
REMARK   34  A    between atoms: _82  and  _83
REMARK   35  A    between atoms: _83  and  _84
REMARK   36  A    between atoms: _84  and  _85
REMARK   37  A    between atoms: _94  and  _96
REMARK   38  A    between atoms: _96  and  _97
REMARK   39  A    between atoms: _96  and  _99
REMARK   40  A    between atoms: _99  and  _100
REMARK   41  A    between atoms: _104  and  _105
REMARK   42  A    between atoms: _111  and  _112
REMARK   43  A    between atoms: _117  and  _119
REMARK   44  A    between atoms: _119  and  _120
REMARK   45  A    between atoms: _119  and  _122
REMARK   46  A    between atoms: _122  and  _123
REMARK   47  A    between atoms: _126  and  _128
REMARK   48  A    between atoms: _128  and  _129
REMARK   49  A    between atoms: _132  and  _133
REMARK   50  A    between atoms: _138  and  _140
REMARK   51  A    between atoms: _140  and  _141
REMARK   52  A    between atoms: _140  and  _143
REMARK   53  A    between atoms: _143  and  _144
REMARK   54  A    between atoms: _144  and  _145
REMARK   55  A    between atoms: _150  and  _152
REMARK   56  A    between atoms: _152  and  _153
REMARK   57  A    between atoms: _152  and  _155
REMARK   58  A    between atoms: _155  and  _156
REMARK   59  A    between atoms: _156  and  _157
REMARK   60  A    between atoms: _163  and  _164
REMARK   61  A    between atoms: _169  and  _171
REMARK   62  A    between atoms: _171  and  _172
REMARK   63  A    between atoms: _171  and  _174
REMARK   64  A    between atoms: _174  and  _175
REMARK   65  A    between atoms: _178  and  _180
REMARK   66  A    between atoms: _180  and  _181
REMARK   67  A    between atoms: _180  and  _183
REMARK   68  A    between atoms: _183  and  _184
REMARK   69  A    between atoms: _189  and  _190
REMARK   70  A    between atoms: _192  and  _194
REMARK   71  A    between atoms: _194  and  _195
REMARK   72  A    between atoms: _194  and  _197
REMARK   73  A    between atoms: _197  and  _198
REMARK   74  A    between atoms: _201  and  _203
REMARK   75  A    between atoms: _203  and  _204
REMARK   76  A    between atoms: _203  and  _206
REMARK   77  A    between atoms: _206  and  _207
REMARK   78  A    between atoms: _212  and  _214
REMARK   79  A    between atoms: _214  and  _215
REMARK   80  A    between atoms: _218  and  _220
REMARK   81  A    between atoms: _220  and  _221
REMARK   82  A    between atoms: _220  and  _223
REMARK   83  A    between atoms: _223  and  _224
REMARK   84  A    between atoms: _224  and  _225
REMARK   85  A    between atoms: _228  and  _230
REMARK   86  A    between atoms: _230  and  _231
REMARK   87  A    between atoms: _230  and  _233
REMARK   88  A    between atoms: _233  and  _234
REMARK   89  A    between atoms: _237  and  _239
REMARK   90  A    between atoms: _239  and  _240
REMARK   91  A    between atoms: _239  and  _242
REMARK   92  A    between atoms: _242  and  _243
REMARK   93  A    between atoms: _246  and  _248
REMARK   94  A    between atoms: _248  and  _249
REMARK   95  A    between atoms: _248  and  _251
REMARK   96  A    between atoms: _251  and  _252
REMARK   97  A    between atoms: _252  and  _253
REMARK   98  A    between atoms: _258  and  _260
REMARK   99  A    between atoms: _260  and  _261
REMARK  100  A    between atoms: _260  and  _263
REMARK  101  A    between atoms: _263  and  _264
REMARK  102  A    between atoms: _264  and  _265
REMARK  103  A    between atoms: _268  and  _270
REMARK  104  A    between atoms: _270  and  _271
REMARK  105  A    between atoms: _270  and  _273
REMARK  106  A    between atoms: _273  and  _274
REMARK  107  A    between atoms: _274  and  _275
REMARK  108  A    between atoms: _275  and  _276
REMARK  109  A    between atoms: _285  and  _287
REMARK  110  A    between atoms: _287  and  _288
REMARK  111  A    between atoms: _287  and  _290
REMARK  112  A    between atoms: _293  and  _295
REMARK  113  A    between atoms: _295  and  _296
REMARK  114  A    between atoms: _295  and  _298
REMARK  115  A    between atoms: _298  and  _299
REMARK  116  A    between atoms: _299  and  _300
REMARK  117  A    between atoms: _300  and  _301
REMARK  118  A    between atoms: _310  and  _312
REMARK  119  A    between atoms: _312  and  _313
REMARK  120  A    between atoms: _312  and  _315
REMARK  121  A    between atoms: _315  and  _316
REMARK  122  A    between atoms: _316  and  _317
REMARK  123  A    between atoms: _317  and  _318
REMARK  124  A    between atoms: _318  and  _319
REMARK  125  A    between atoms: _323  and  _325
REMARK  126  A    between atoms: _325  and  _326
REMARK  127  A    between atoms: _329  and  _331
REMARK  128  A    between atoms: _331  and  _332
REMARK  129  A    between atoms: _331  and  _334
REMARK  130  A    between atoms: _334  and  _335
REMARK  131  A    between atoms: _335  and  _336
REMARK  132  A    between atoms: _339  and  _341
REMARK  133  A    between atoms: _341  and  _342
REMARK  134  A    between atoms: _341  and  _344
REMARK  135  A    between atoms: _344  and  _345
REMARK  136  A    between atoms: _345  and  _346
REMARK  137  A    between atoms: _346  and  _347
REMARK  138  A    between atoms: _356  and  _358
REMARK  139  A    between atoms: _358  and  _359
REMARK  140  A    between atoms: _358  and  _361
REMARK  141  A    between atoms: _361  and  _362
REMARK  142  A    between atoms: _372  and  _374
REMARK  143  A    between atoms: _374  and  _375
REMARK  144  A    between atoms: _378  and  _379
REMARK  145  A    between atoms: _384  and  _386
REMARK  146  A    between atoms: _386  and  _387
REMARK  147  A    between atoms: _386  and  _389
REMARK  148  A    between atoms: _389  and  _390
REMARK  149  A    between atoms: _390  and  _391
REMARK  150  A    between atoms: _391  and  _392
REMARK  151  A    between atoms: _401  and  _403
REMARK  152  A    between atoms: _403  and  _404
REMARK  153  A    between atoms: _403  and  _406
REMARK  154  A    between atoms: _406  and  _407
REMARK  155  A    between atoms: _410  and  _412
REMARK  156  A    between atoms: _412  and  _413
REMARK  157  A    between atoms: _412  and  _415
REMARK  158  A    between atoms: _415  and  _416
REMARK  159  A    between atoms: _419  and  _421
REMARK  160  A    between atoms: _421  and  _422
REMARK  161  A    between atoms: _421  and  _424
REMARK  162  A    between atoms: _424  and  _425
REMARK  163  A    between atoms: _428  and  _430
REMARK  164  A    between atoms: _430  and  _431
REMARK  165  A    between atoms: _430  and  _433
REMARK  166  A    between atoms: _433  and  _434
REMARK  167  A    between atoms: _437  and  _439
REMARK  168  A    between atoms: _439  and  _440
REMARK  169  A    between atoms: _439  and  _442
REMARK  170  A    between atoms: _442  and  _443
REMARK  171  A    between atoms: _446  and  _448
REMARK  172  A    between atoms: _448  and  _449
REMARK  173  A    between atoms: _448  and  _451
REMARK  174  A    between atoms: _451  and  _452
REMARK  175  A    between atoms: _452  and  _453
REMARK  176  A    between atoms: _455  and  _457
REMARK  177  A    between atoms: _457  and  _458
REMARK  178  A    between atoms: _457  and  _460
REMARK  179  A    between atoms: _460  and  _461
REMARK  180  A    between atoms: _464  and  _466
REMARK  181  A    between atoms: _466  and  _467
REMARK  182  A    between atoms: _466  and  _469
REMARK  183  A    between atoms: _469  and  _470
REMARK  184  A    between atoms: _476  and  _478
REMARK  185  A    between atoms: _478  and  _479
REMARK  186  A    between atoms: _478  and  _481
REMARK  187  A    between atoms: _481  and  _482
REMARK  188  A    between atoms: _485  and  _487
REMARK  189  A    between atoms: _487  and  _488
REMARK  190  A    between atoms: _487  and  _490
REMARK  191  A    between atoms: _490  and  _491
REMARK  192  A    between atoms: _496  and  _498
REMARK  193  A    between atoms: _498  and  _499
REMARK  194  A    between atoms: _498  and  _501
REMARK  195  A    between atoms: _501  and  _502
REMARK  196  A    between atoms: _505  and  _507
REMARK  197  A    between atoms: _507  and  _508
REMARK  198  A    between atoms: _507  and  _510
REMARK  199  A    between atoms: _510  and  _511
REMARK  200  A    between atoms: _511  and  _512
REMARK  201  A    between atoms: _515  and  _517
REMARK  202  A    between atoms: _517  and  _518
REMARK  203  A    between atoms: _517  and  _520
REMARK  204  A    between atoms: _520  and  _521
REMARK  205  A    between atoms: _521  and  _522
REMARK  206  A    between atoms: _522  and  _523
REMARK  207  A    between atoms: _532  and  _534
REMARK  208  A    between atoms: _534  and  _535
REMARK  209  A    between atoms: _534  and  _537
REMARK  210  A    between atoms: _537  and  _538
REMARK  211  A    between atoms: _541  and  _543
REMARK  212  A    between atoms: _543  and  _544
REMARK  213  A    between atoms: _543  and  _546
REMARK  214  A    between atoms: _546  and  _547
REMARK  215  A    between atoms: _550  and  _552
REMARK  216  A    between atoms: _552  and  _553
REMARK  217  A    between atoms: _552  and  _555
REMARK  218  A    between atoms: _559  and  _560
REMARK  219  A    between atoms: _565  and  _567
REMARK  220  A    between atoms: _567  and  _568
REMARK  221  A    between atoms: _567  and  _570
REMARK  222  A    between atoms: _570  and  _571
REMARK  223  A    between atoms: _576  and  _578
REMARK  224  A    between atoms: _578  and  _579
REMARK  225  A    between atoms: _578  and  _581
REMARK  226  A    between atoms: _581  and  _582
REMARK  227  A    between atoms: _587  and  _588
REMARK  228  A    between atoms: _590  and  _592
REMARK  229  A    between atoms: _592  and  _593
REMARK  230  A    between atoms: _592  and  _595
REMARK  231  A    between atoms: _595  and  _596
REMARK  232  A    between atoms: _599  and  _601
REMARK  233  A    between atoms: _601  and  _602
REMARK  234  A    between atoms: _601  and  _604
REMARK  235  A    between atoms: _604  and  _605
REMARK  236  A    between atoms: _605  and  _606
REMARK  237  A    between atoms: _608  and  _610
REMARK  238  A    between atoms: _610  and  _611
REMARK  239  A    between atoms: _610  and  _613
REMARK  240  A    between atoms: _613  and  _614
REMARK  241  A    between atoms: _614  and  _615
REMARK  242  A    between atoms: _615  and  _616
REMARK  243  A    between atoms: _625  and  _627
REMARK  244  A    between atoms: _627  and  _628
REMARK  245  A    between atoms: _630  and  _632
REMARK  246  A    between atoms: _632  and  _633
REMARK  247  A    between atoms: _632  and  _635
REMARK  248  A    between atoms: _635  and  _636
REMARK  249  A    between atoms: _642  and  _644
REMARK  250  A    between atoms: _644  and  _645
REMARK  251  A    between atoms: _644  and  _647
REMARK  252  A    between atoms: _647  and  _648
REMARK  253  A    between atoms: _648  and  _649
REMARK  254  A    between atoms: _651  and  _653
REMARK  255  A    between atoms: _653  and  _654
REMARK  256  A    between atoms: _653  and  _656
REMARK  257  A    between atoms: _656  and  _657
REMARK                            x       y       z     vdW  Elec       q    Type
REMARK                         _______ _______ _______ _____ _____    ______ ____
ROOT
ATOM      1  C   ALA A   3       4.614  17.781  11.435  0.00  0.00    +0.241 C 
ATOM      2  O   ALA A   3       4.576  17.252  12.549  0.00  0.00    -0.273 OA
ATOM      3  N   ILE A   4       5.714  17.939  10.706  0.00  0.00    -0.297 N 
ATOM      4  H   ILE A   4       5.635  18.344   9.751  0.00  0.00    +0.150 HD
ENDROOT
BRANCH   1   5
ATOM      5  CA  ALA A   3       3.312  18.289  10.822  0.00  0.00    +0.149 C 
ATOM      6  CB  ALA A   3       2.754  19.479  11.583  0.00  0.00    +0.031 C 
BRANCH   5   8
ATOM      7  C   ILE A   2       2.156  16.489   9.696  0.00  0.00    +0.241 C 
ATOM      8  N   ALA A   3       2.346  17.202  10.802  0.00  0.00    -0.297 N 
ATOM      9  H   ALA A   3       1.800  16.981  11.659  0.00  0.00    +0.150 HD
ATOM     10  O   ILE A   2       2.717  16.680   8.623  0.00  0.00    -0.273 OA
BRANCH   7  11
ATOM     11  CA  ILE A   2       1.131  15.374   9.901  0.00  0.00    +0.148 C 
BRANCH  11  14
ATOM     12  C   TYR A   1      -1.032  15.618   8.922  0.00  0.00    +0.239 C 
ATOM     13  O   TYR A   1      -1.486  16.084   9.970  0.00  0.00    -0.274 OA
ATOM     14  N   ILE A   2       0.245  15.258   8.743  0.00  0.00    -0.297 N 
ATOM     15  H   ILE A   2       0.590  14.913   7.825  0.00  0.00    +0.150 HD
BRANCH  12  16
ATOM     16  CA  TYR A   1      -1.951  15.404   7.732  0.00  0.00    +0.149 C 
BRANCH  16  17
ATOM     17  N   TYR A   1      -2.959  14.397   8.065  0.00  0.00    -0.238 NA
ATOM     18  H   TYR A   1      -3.852  14.675   8.520  0.00  0.00    +0.142 HD
ENDBRANCH  16  17
BRANCH  16  19
ATOM     19  CB  TYR A   1      -2.601  16.725   7.326  0.00  0.00    +0.053 C 
BRANCH  19  20
ATOM     20  CG  TYR A   1      -3.229  16.661   5.954  0.00  0.00    -0.020 A 
ATOM     21  CD2 TYR A   1      -4.596  16.458   5.804  0.00  0.00    -0.001 A 
ATOM     22  CE2 TYR A   1      -5.147  16.401   4.537  0.00  0.00    +0.036 A 
ATOM     23  CZ  TYR A   1      -4.352  16.538   3.420  0.00  0.00    +0.134 A 
ATOM     24  CE1 TYR A   1      -2.993  16.738   3.561  0.00  0.00    +0.036 A 
ATOM     25  CD1 TYR A   1      -2.440  16.795   4.822  0.00  0.00    -0.001 A 
BRANCH  23  26
ATOM     26  OH  TYR A   1      -4.884  16.483   2.150  0.00  0.00    -0.506 OA
ATOM     27  HH  TYR A   1      -4.160  16.601   1.485  0.00  0.00    +0.292 HD
ENDBRANCH  23  26
ENDBRANCH  19  20
ENDBRANCH  16  19
ENDBRANCH  12  16
ENDBRANCH  11  14
BRANCH  11  28
ATOM     28  CB  ILE A   2       1.857  14.061  10.222  0.00  0.00    +0.027 C 
ATOM     29  CG2 ILE A   2       2.910  14.255  11.304  0.00  0.00    +0.002 C 
BRANCH  28  30
ATOM     30  CG1 ILE A   2       0.899  12.933  10.628  0.00  0.00    +0.002 C 
ATOM     31  CD1 ILE A   2       1.326  11.569  10.128  0.00  0.00    +0.000 C 
ENDBRANCH  28  30
ENDBRANCH  11  28
ENDBRANCH   7  11
ENDBRANCH   5   8
ENDBRANCH   1   5
BRANCH   3  32
ATOM     32  CA  ILE A   4       7.023  17.562  11.207  0.00  0.00    +0.149 C 
BRANCH  32  33
ATOM     33  C   ILE A   4       7.857  18.809  11.535  0.00  0.00    +0.241 C 
ATOM     34  N   GLY A   5       8.436  18.788  12.724  0.00  0.00    -0.295 N 
ATOM     35  H   GLY A   5       8.250  17.973  13.342  0.00  0.00    +0.150 HD
ATOM     36  O   ILE A   4       7.946  19.712  10.711  0.00  0.00    -0.273 OA
BRANCH  34  37
ATOM     37  CA  GLY A   5       9.315  19.831  13.220  0.00  0.00    +0.176 C 
BRANCH  37  38
ATOM     38  C   GLY A   5      10.529  19.267  13.933  0.00  0.00    +0.243 C 
ATOM     39  O   GLY A   5      10.466  18.194  14.536  0.00  0.00    -0.273 OA
ATOM     40  N   SER A   6      11.633  20.001  13.869  0.00  0.00    -0.295 N 
ATOM     41  H   SER A   6      11.607  20.886  13.323  0.00  0.00    +0.150 HD
BRANCH  40  42
ATOM     42  CA  SER A   6      12.877  19.630  14.524  0.00  0.00    +0.178 C 
BRANCH  42  43
ATOM     43  C   SER A   6      13.836  20.809  14.588  0.00  0.00    +0.243 C 
ATOM     44  N   ASN A   7      14.449  21.081  15.736  0.00  0.00    -0.298 N 
ATOM     45  H   ASN A   7      14.196  20.615  16.631  0.00  0.00    +0.150 HD
ATOM     46  O   SER A   6      14.033  21.478  13.564  0.00  0.00    -0.273 OA
BRANCH  44  47
ATOM     47  CA  ASN A   7      15.518  22.097  15.642  0.00  0.00    +0.146 C 
BRANCH  47  48
ATOM     48  C   ASN A   7      16.735  21.700  16.465  0.00  0.00    +0.227 C 
ATOM     49  O   ASN A   7      17.511  22.553  16.904  0.00  0.00    -0.286 OA
ENDBRANCH  47  48
BRANCH  47  50
ATOM     50  CB  ASN A   7      14.978  23.473  16.033  0.00  0.00    +0.112 C 
BRANCH  50  51
ATOM     51  CG  ASN A   7      14.681  23.627  17.501  0.00  0.00    +0.222 C 
ATOM     52  OD1 ASN A   7      14.343  22.675  18.210  0.00  0.00    -0.275 OA
ATOM     53  ND2 ASN A   7      14.810  24.858  17.999  0.00  0.00    -0.329 N 
ATOM     54 HD21 ASN A   7      14.624  25.033  19.007  0.00  0.00    +0.145 HD
ATOM     55 HD22 ASN A   7      15.096  25.642  17.379  0.00  0.00    +0.145 HD
ENDBRANCH  50  51
ENDBRANCH  47  50
ENDBRANCH  44  47
ENDBRANCH  42  43
BRANCH  42  56
ATOM     56  CB  SER A   6      13.564  18.487  13.764  0.00  0.00    +0.166 C 
BRANCH  56  57
ATOM     57  OG  SER A   6      14.894  18.323  14.226  0.00  0.00    -0.380 OA
ATOM     58  H   SER A   6      14.882  18.110  15.193  0.00  0.00    +0.211 HD
ENDBRANCH  56  57
ENDBRANCH  42  56
ENDBRANCH  40  42
ENDBRANCH  37  38
ENDBRANCH  34  37
ENDBRANCH  32  33
BRANCH  32  59
ATOM     59  CB  ILE A   4       7.859  16.722  10.233  0.00  0.00    +0.027 C 
ATOM     60  CG2 ILE A   4       9.087  16.173  10.956  0.00  0.00    +0.002 C 
BRANCH  59  61
ATOM     61  CG1 ILE A   4       7.111  15.586   9.535  0.00  0.00    +0.002 C 
ATOM     62  CD1 ILE A   4       8.063  14.546   8.967  0.00  0.00    +0.000 C 
ENDBRANCH  59  61
ENDBRANCH  32  59
ENDBRANCH   3  32
TORSDOF 25
REMARK  Name = ../refined-set-2016/1ex8/1ex8_pocket.pdb
REMARK  257 active torsions:
REMARK  status: ('A' for Active; 'I' for Inactive)
REMARK    1  A    between atoms: _1  and  _3
REMARK    2  A    between atoms: _3  and  _4
REMARK    3  A    between atoms: _3  and  _6
REMARK    4  A    between atoms: _6  and  _7
REMARK    5  A    between atoms: _12  and  _13
REMARK    6  A    between atoms: _15  and  _17
REMARK    7  A    between atoms: _17  and  _18
REMARK    8  A    between atoms: _17  and  _20
REMARK    9  A    between atoms: _20  and  _21
REMARK   10  A    between atoms: _24  and  _26
REMARK   11  A    between atoms: _26  and  _27
REMARK   12  A    between atoms: _30  and  _32
REMARK   13  A    between atoms: _32  and  _33
REMARK   14  A    between atoms: _32  and  _35
REMARK   15  A    between atoms: _35  and  _36
REMARK   16  A    between atoms: _39  and  _41
REMARK   17  A    between atoms: _41  and  _42
REMARK   18  A    between atoms: _44  and  _46
REMARK   19  A    between atoms: _46  and  _47
REMARK   20  A    between atoms: _46  and  _49
REMARK   21  A    between atoms: _49  and  _50
REMARK   22  A    between atoms: _52  and  _54
REMARK   23  A    between atoms: _54  and  _55
REMARK   24  A    between atoms: _54  and  _57
REMARK   25  A    between atoms: _57  and  _58
REMARK   26  A    between atoms: _63  and  _65
REMARK   27  A    between atoms: _65  and  _66
REMARK   28  A    between atoms: _65  and  _68
REMARK   29  A    between atoms: _68  and  _69
REMARK   30  A    between atoms: _74  and  _75
REMARK   31  A    between atoms: _77  and  _79
REMARK   32  A    between atoms: _79  and  _80
REMARK   33  A    between atoms: _79  and  _82
REMARK   34  A    between atoms: _82  and  _83
REMARK   35  A    between atoms: _83  and  _84
REMARK   36  A    between atoms: _84  and  _85
REMARK   37  A    between atoms: _94  and  _96
REMARK   38  A    between atoms: _96  and  _97
REMARK   39  A    between atoms: _96  and  _99
REMARK   40  A    between atoms: _99  and  _100
REMARK   41  A    between atoms: _104  and  _105
REMARK   42  A    between atoms: _111  and  _112
REMARK   43  A    between atoms: _117  and  _119
REMARK   44  A    between atoms: _119  and  _120
REMARK   45  A    between atoms: _119  and  _122
REMARK   46  A    between atoms: _122  and  _123
REMARK   47  A    between atoms: _126  and  _128
REMARK   48  A    between atoms: _128  and  _129
REMARK   49  A    between atoms: _132  and  _133
REMARK   50  A    between atoms: _138  and  _140
REMARK   51  A    between atoms: _140  and  _141
REMARK   52  A    between atoms: _140  and  _143
REMARK   53  A    between atoms: _143  and  _144
REMARK   54  A    between atoms: _144  and  _145
REMARK   55  A    between atoms: _150  and  _152
REMARK   56  A    between atoms: _152  and  _153
REMARK   57  A    between atoms: _152  and  _155
REMARK   58  A    between atoms: _155  and  _156
REMARK   59  A    between atoms: _156  and  _157
REMARK   60  A    between atoms: _163  and  _164
REMARK   61  A    between atoms: _169  and  _171
REMARK   62  A    between atoms: _171  and  _172
REMARK   63  A    between atoms: _171  and  _174
REMARK   64  A    between atoms: _174  and  _175
REMARK   65  A    between atoms: _178  and  _180
REMARK   66  A    between atoms: _180  and  _181
REMARK   67  A    between atoms: _180  and  _183
REMARK   68  A    between atoms: _183  and  _184
REMARK   69  A    between atoms: _189  and  _190
REMARK   70  A    between atoms: _192  and  _194
REMARK   71  A    between atoms: _194  and  _195
REMARK   72  A    between atoms: _194  and  _197
REMARK   73  A    between atoms: _197  and  _198
REMARK   74  A    between atoms: _201  and  _203
REMARK   75  A    between atoms: _203  and  _204
REMARK   76  A    between atoms: _203  and  _206
REMARK   77  A    between atoms: _206  and  _207
REMARK   78  A    between atoms: _212  and  _214
REMARK   79  A    between atoms: _214  and  _215
REMARK   80  A    between atoms: _218  and  _220
REMARK   81  A    between atoms: _220  and  _221
REMARK   82  A    between atoms: _220  and  _223
REMARK   83  A    between atoms: _223  and  _224
REMARK   84  A    between atoms: _224  and  _225
REMARK   85  A    between atoms: _228  and  _230
REMARK   86  A    between atoms: _230  and  _231
REMARK   87  A    between atoms: _230  and  _233
REMARK   88  A    between atoms: _233  and  _234
REMARK   89  A    between atoms: _237  and  _239
REMARK   90  A    between atoms: _239  and  _240
REMARK   91  A    between atoms: _239  and  _242
REMARK   92  A    between atoms: _242  and  _243
REMARK   93  A    between atoms: _246  and  _248
REMARK   94  A    between atoms: _248  and  _249
REMARK   95  A    between atoms: _248  and  _251
REMARK   96  A    between atoms: _251  and  _252
REMARK   97  A    between atoms: _252  and  _253
REMARK   98  A    between atoms: _258  and  _260
REMARK   99  A    between atoms: _260  and  _261
REMARK  100  A    between atoms: _260  and  _263
REMARK  101  A    between atoms: _263  and  _264
REMARK  102  A    between atoms: _264  and  _265
REMARK  103  A    between atoms: _268  and  _270
REMARK  104  A    between atoms: _270  and  _271
REMARK  105  A    between atoms: _270  and  _273
REMARK  106  A    between atoms: _273  and  _274
REMARK  107  A    between atoms: _274  and  _275
REMARK  108  A    between atoms: _275  and  _276
REMARK  109  A    between atoms: _285  and  _287
REMARK  110  A    between atoms: _287  and  _288
REMARK  111  A    between atoms: _287  and  _290
REMARK  112  A    between atoms: _293  and  _295
REMARK  113  A    between atoms: _295  and  _296
REMARK  114  A    between atoms: _295  and  _298
REMARK  115  A    between atoms: _298  and  _299
REMARK  116  A    between atoms: _299  and  _300
REMARK  117  A    between atoms: _300  and  _301
REMARK  118  A    between atoms: _310  and  _312
REMARK  119  A    between atoms: _312  and  _313
REMARK  120  A    between atoms: _312  and  _315
REMARK  121  A    between atoms: _315  and  _316
REMARK  122  A    between atoms: _316  and  _317
REMARK  123  A    between atoms: _317  and  _318
REMARK  124  A    between atoms: _318  and  _319
REMARK  125  A    between atoms: _323  and  _325
REMARK  126  A    between atoms: _325  and  _326
REMARK  127  A    between atoms: _329  and  _331
REMARK  128  A    between atoms: _331  and  _332
REMARK  129  A    between atoms: _331  and  _334
REMARK  130  A    between atoms: _334  and  _335
REMARK  131  A    between atoms: _335  and  _336
REMARK  132  A    between atoms: _339  and  _341
REMARK  133  A    between atoms: _341  and  _342
REMARK  134  A    between atoms: _341  and  _344
REMARK  135  A    between atoms: _344  and  _345
REMARK  136  A    between atoms: _345  and  _346
REMARK  137  A    between atoms: _346  and  _347
REMARK  138  A    between atoms: _356  and  _358
REMARK  139  A    between atoms: _358  and  _359
REMARK  140  A    between atoms: _358  and  _361
REMARK  141  A    between atoms: _361  and  _362
REMARK  142  A    between atoms: _372  and  _374
REMARK  143  A    between atoms: _374  and  _375
REMARK  144  A    between atoms: _378  and  _379
REMARK  145  A    between atoms: _384  and  _386
REMARK  146  A    between atoms: _386  and  _387
REMARK  147  A    between atoms: _386  and  _389
REMARK  148  A    between atoms: _389  and  _390
REMARK  149  A    between atoms: _390  and  _391
REMARK  150  A    between atoms: _391  and  _392
REMARK  151  A    between atoms: _401  and  _403
REMARK  152  A    between atoms: _403  and  _404
REMARK  153  A    between atoms: _403  and  _406
REMARK  154  A    between atoms: _406  and  _407
REMARK  155  A    between atoms: _410  and  _412
REMARK  156  A    between atoms: _412  and  _413
REMARK  157  A    between atoms: _412  and  _415
REMARK  158  A    between atoms: _415  and  _416
REMARK  159  A    between atoms: _419  and  _421
REMARK  160  A    between atoms: _421  and  _422
REMARK  161  A    between atoms: _421  and  _424
REMARK  162  A    between atoms: _424  and  _425
REMARK  163  A    between atoms: _428  and  _430
REMARK  164  A    between atoms: _430  and  _431
REMARK  165  A    between atoms: _430  and  _433
REMARK  166  A    between atoms: _433  and  _434
REMARK  167  A    between atoms: _437  and  _439
REMARK  168  A    between atoms: _439  and  _440
REMARK  169  A    between atoms: _439  and  _442
REMARK  170  A    between atoms: _442  and  _443
REMARK  171  A    between atoms: _446  and  _448
REMARK  172  A    between atoms: _448  and  _449
REMARK  173  A    between atoms: _448  and  _451
REMARK  174  A    between atoms: _451  and  _452
REMARK  175  A    between atoms: _452  and  _453
REMARK  176  A    between atoms: _455  and  _457
REMARK  177  A    between atoms: _457  and  _458
REMARK  178  A    between atoms: _457  and  _460
REMARK  179  A    between atoms: _460  and  _461
REMARK  180  A    between atoms: _464  and  _466
REMARK  181  A    between atoms: _466  and  _467
REMARK  182  A    between atoms: _466  and  _469
REMARK  183  A    between atoms: _469  and  _470
REMARK  184  A    between atoms: _476  and  _478
REMARK  185  A    between atoms: _478  and  _479
REMARK  186  A    between atoms: _478  and  _481
REMARK  187  A    between atoms: _481  and  _482
REMARK  188  A    between atoms: _485  and  _487
REMARK  189  A    between atoms: _487  and  _488
REMARK  190  A    between atoms: _487  and  _490
REMARK  191  A    between atoms: _490  and  _491
REMARK  192  A    between atoms: _496  and  _498
REMARK  193  A    between atoms: _498  and  _499
REMARK  194  A    between atoms: _498  and  _501
REMARK  195  A    between atoms: _501  and  _502
REMARK  196  A    between atoms: _505  and  _507
REMARK  197  A    between atoms: _507  and  _508
REMARK  198  A    between atoms: _507  and  _510
REMARK  199  A    between atoms: _510  and  _511
REMARK  200  A    between atoms: _511  and  _512
REMARK  201  A    between atoms: _515  and  _517
REMARK  202  A    between atoms: _517  and  _518
REMARK  203  A    between atoms: _517  and  _520
REMARK  204  A    between atoms: _520  and  _521
REMARK  205  A    between atoms: _521  and  _522
REMARK  206  A    between atoms: _522  and  _523
REMARK  207  A    between atoms: _532  and  _534
REMARK  208  A    between atoms: _534  and  _535
REMARK  209  A    between atoms: _534  and  _537
REMARK  210  A    between atoms: _537  and  _538
REMARK  211  A    between atoms: _541  and  _543
REMARK  212  A    between atoms: _543  and  _544
REMARK  213  A    between atoms: _543  and  _546
REMARK  214  A    between atoms: _546  and  _547
REMARK  215  A    between atoms: _550  and  _552
REMARK  216  A    between atoms: _552  and  _553
REMARK  217  A    between atoms: _552  and  _555
REMARK  218  A    between atoms: _559  and  _560
REMARK  219  A    between atoms: _565  and  _567
REMARK  220  A    between atoms: _567  and  _568
REMARK  221  A    between atoms: _567  and  _570
REMARK  222  A    between atoms: _570  and  _571
REMARK  223  A    between atoms: _576  and  _578
REMARK  224  A    between atoms: _578  and  _579
REMARK  225  A    between atoms: _578  and  _581
REMARK  226  A    between atoms: _581  and  _582
REMARK  227  A    between atoms: _587  and  _588
REMARK  228  A    between atoms: _590  and  _592
REMARK  229  A    between atoms: _592  and  _593
REMARK  230  A    between atoms: _592  and  _595
REMARK  231  A    between atoms: _595  and  _596
REMARK  232  A    between atoms: _599  and  _601
REMARK  233  A    between atoms: _601  and  _602
REMARK  234  A    between atoms: _601  and  _604
REMARK  235  A    between atoms: _604  and  _605
REMARK  236  A    between atoms: _605  and  _606
REMARK  237  A    between atoms: _608  and  _610
REMARK  238  A    between atoms: _610  and  _611
REMARK  239  A    between atoms: _610  and  _613
REMARK  240  A    between atoms: _613  and  _614
REMARK  241  A    between atoms: _614  and  _615
REMARK  242  A    between atoms: _615  and  _616
REMARK  243  A    between atoms: _625  and  _627
REMARK  244  A    between atoms: _627  and  _628
REMARK  245  A    between atoms: _630  and  _632
REMARK  246  A    between atoms: _632  and  _633
REMARK  247  A    between atoms: _632  and  _635
REMARK  248  A    between atoms: _635  and  _636
REMARK  249  A    between atoms: _642  and  _644
REMARK  250  A    between atoms: _644  and  _645
REMARK  251  A    between atoms: _644  and  _647
REMARK  252  A    between atoms: _647  and  _648
REMARK  253  A    between atoms: _648  and  _649
REMARK  254  A    between atoms: _651  and  _653
REMARK  255  A    between atoms: _653  and  _654
REMARK  256  A    between atoms: _653  and  _656
REMARK  257  A    between atoms: _656  and  _657
REMARK                            x       y       z     vdW  Elec       q    Type
REMARK                         _______ _______ _______ _____ _____    ______ ____
ROOT
ATOM      1  C   THR A   3      11.628  29.252  11.703  0.00  0.00    +0.246 C 
ATOM      2  O   THR A   3      12.220  28.498  12.484  0.00  0.00    -0.273 OA
ATOM      3  N   PRO A   4      11.368  30.516  12.028  0.00  0.00    -0.272 N 
ATOM      4  CA  PRO A   4      11.813  31.031  13.328  0.00  0.00    +0.152 C 
ATOM      5  CB  PRO A   4      11.526  32.532  13.217  0.00  0.00    +0.031 C 
ATOM      6  CG  PRO A   4      10.420  32.621  12.225  0.00  0.00    +0.024 C 
ATOM      7  CD  PRO A   4      10.654  31.515  11.230  0.00  0.00    +0.094 C 
ENDROOT
BRANCH   4   8
ATOM      8  C   PRO A   4      11.022  30.407  14.467  0.00  0.00    +0.244 C 
ATOM      9  N   PRO A   5      11.676  30.235  15.609  0.00  0.00    -0.272 N 
ATOM     10  CA  PRO A   5      11.030  29.675  16.794  0.00  0.00    +0.152 C 
ATOM     11  CB  PRO A   5      12.032  29.937  17.913  0.00  0.00    +0.031 C 
ATOM     12  CG  PRO A   5      13.347  30.022  17.222  0.00  0.00    +0.024 C 
ATOM     13  CD  PRO A   5      13.082  30.595  15.858  0.00  0.00    +0.094 C 
ATOM     14  O   PRO A   4       9.845  30.089  14.306  0.00  0.00    -0.273 OA
BRANCH  10  15
ATOM     15  C   PRO A   5       9.731  30.429  17.073  0.00  0.00    +0.241 C 
ATOM     16  N   LEU A   6       8.713  29.706  17.514  0.00  0.00    -0.297 N 
ATOM     17  H   LEU A   6       8.846  28.696  17.725  0.00  0.00    +0.150 HD
ATOM     18  O   PRO A   5       9.661  31.642  16.859  0.00  0.00    -0.273 OA
BRANCH  16  19
ATOM     19  CA  LEU A   6       7.400  30.326  17.705  0.00  0.00    +0.149 C 
BRANCH  19  20
ATOM     20  C   LEU A   6       7.363  31.107  19.014  0.00  0.00    +0.241 C 
ATOM     21  N   GLY A   7       8.080  30.615  20.016  0.00  0.00    -0.295 N 
ATOM     22  H   GLY A   7       8.584  29.724  19.835  0.00  0.00    +0.150 HD
ATOM     23  O   LEU A   6       6.702  32.144  19.105  0.00  0.00    -0.273 OA
BRANCH  21  24
ATOM     24  CA  GLY A   7       8.232  31.188  21.329  0.00  0.00    +0.176 C 
BRANCH  24  25
ATOM     25  C   GLY A   7       9.596  31.798  21.581  0.00  0.00    +0.246 C 
ATOM     26  N   PRO A   8      10.305  31.277  22.578  0.00  0.00    -0.272 N 
ATOM     27  CD  PRO A   8       9.909  30.167  23.450  0.00  0.00    +0.094 C 
ATOM     28  CG  PRO A   8      11.210  29.746  24.077  0.00  0.00    +0.024 C 
ATOM     29  CB  PRO A   8      12.113  30.929  24.034  0.00  0.00    +0.031 C 
ATOM     30  CA  PRO A   8      11.625  31.832  22.902  0.00  0.00    +0.152 C 
ATOM     31  O   GLY A   7      10.043  32.738  20.914  0.00  0.00    -0.273 OA
BRANCH  30  32
ATOM     32  C   PRO A   8      12.560  31.797  21.698  0.00  0.00    +0.241 C 
ATOM     33  N   GLN A   9      13.412  32.806  21.527  0.00  0.00    -0.298 N 
ATOM     34  H   GLN A   9      13.468  33.551  22.251  0.00  0.00    +0.150 HD
ATOM     35  O   PRO A   8      12.544  30.875  20.889  0.00  0.00    -0.273 OA
BRANCH  33  36
ATOM     36  CA  GLN A   9      14.268  32.892  20.350  0.00  0.00    +0.137 C 
BRANCH  36  37
ATOM     37  C   GLN A   9      15.661  32.305  20.544  0.00  0.00    +0.227 C 
ATOM     38  O   GLN A   9      16.407  32.113  19.577  0.00  0.00    -0.286 OA
ENDBRANCH  36  37
BRANCH  36  39
ATOM     39  CB  GLN A   9      14.416  34.361  19.929  0.00  0.00    +0.037 C 
BRANCH  39  40
ATOM     40  CG  GLN A   9      13.126  34.963  19.391  0.00  0.00    +0.087 C 
BRANCH  40  41
ATOM     41  CD  GLN A   9      12.599  34.199  18.191  0.00  0.00    +0.219 C 
ATOM     42  NE2 GLN A   9      11.603  33.353  18.445  0.00  0.00    -0.329 N 
ATOM     43 HE21 GLN A   9      11.240  33.253  19.415  0.00  0.00    +0.145 HD
ATOM     44 HE22 GLN A   9      11.188  32.792  17.674  0.00  0.00    +0.145 HD
ATOM     45  OE1 GLN A   9      13.079  34.370  17.070  0.00  0.00    -0.275 OA
ENDBRANCH  40  41
ENDBRANCH  39  40
ENDBRANCH  36  39
ENDBRANCH  33  36
ENDBRANCH  30  32
ENDBRANCH  24  25
ENDBRANCH  21  24
ENDBRANCH  19  20
BRANCH  19  46
ATOM     46  CB  LEU A   6       6.352  29.219  17.608  0.00  0.00    +0.029 C 
BRANCH  46  47
ATOM     47  CG  LEU A   6       5.035  29.414  18.347  0.00  0.00    +0.002 C 
ATOM     48  CD2 LEU A   6       4.571  28.103  18.969  0.00  0.00    +0.000 C 
ATOM     49  CD1 LEU A   6       3.996  29.986  17.396  0.00  0.00    +0.000 C 
ENDBRANCH  46  47
ENDBRANCH  19  46
ENDBRANCH  16  19
ENDBRANCH  10  15
ENDBRANCH   4   8
BRANCH   1  50
ATOM     50  CA  THR A   3      11.175  28.768  10.338  0.00  0.00    +0.176 C 
BRANCH  50  52
ATOM     51  C   ARG A   2      12.591  27.989   8.540  0.00  0.00    +0.241 C 
ATOM     52  N   THR A   3      12.143  27.819   9.777  0.00  0.00    -0.295 N 
ATOM     53  H   THR A   3      12.477  27.016  10.347  0.00  0.00    +0.150 HD
ATOM     54  O   ARG A   2      12.286  28.979   7.879  0.00  0.00    -0.273 OA
BRANCH  51  55
ATOM     55  CA  ARG A   2      13.487  26.892   7.960  0.00  0.00    +0.149 C 
BRANCH  55  58
ATOM     56  C   TYR A   1      12.071  25.280   6.791  0.00  0.00    +0.239 C 
ATOM     57  O   TYR A   1      11.931  24.545   7.772  0.00  0.00    -0.274 OA
ATOM     58  N   ARG A   2      12.854  26.362   6.758  0.00  0.00    -0.297 N 
ATOM     59  H   ARG A   2      13.017  26.840   5.849  0.00  0.00    +0.150 HD
BRANCH  56  60
ATOM     60  CA  TYR A   1      11.293  24.995   5.512  0.00  0.00    +0.149 C 
BRANCH  60  61
ATOM     61  N   TYR A   1      11.166  23.575   5.223  0.00  0.00    -0.238 NA
ATOM     62  H   TYR A   1      10.675  22.953   5.897  0.00  0.00    +0.142 HD
ENDBRANCH  60  61
BRANCH  60  63
ATOM     63  CB  TYR A   1       9.898  25.634   5.632  0.00  0.00    +0.053 C 
BRANCH  63  64
ATOM     64  CG  TYR A   1       9.057  25.512   4.385  0.00  0.00    -0.020 A 
ATOM     65  CD2 TYR A   1       8.061  24.556   4.295  0.00  0.00    -0.001 A 
ATOM     66  CE2 TYR A   1       7.277  24.426   3.166  0.00  0.00    +0.036 A 
ATOM     67  CZ  TYR A   1       7.482  25.275   2.103  0.00  0.00    +0.134 A 
ATOM     68  CE1 TYR A   1       8.461  26.240   2.171  0.00  0.00    +0.036 A 
ATOM     69  CD1 TYR A   1       9.240  26.355   3.300  0.00  0.00    -0.001 A 
BRANCH  67  70
ATOM     70  OH  TYR A   1       6.706  25.143   0.973  0.00  0.00    -0.506 OA
ATOM     71  HH  TYR A   1       6.831  24.238   0.592  0.00  0.00    +0.292 HD
ENDBRANCH  67  70
ENDBRANCH  63  64
ENDBRANCH  60  63
ENDBRANCH  56  60
ENDBRANCH  55  58
BRANCH  55  72
ATOM     72  CB  ARG A   2      14.891  27.434   7.688  0.00  0.00    +0.033 C 
BRANCH  72  73
ATOM     73  CG  ARG A   2      15.722  27.661   8.945  0.00  0.00    +0.045 C 
BRANCH  73  74
ATOM     74  CD  ARG A   2      17.094  28.246   8.634  0.00  0.00    +0.174 C 
BRANCH  74  75
ATOM     75  NE  ARG A   2      17.996  27.284   8.007  0.00  0.00    -0.265 N 
ATOM     76  HE  ARG A   2      18.643  26.758   8.629  0.00  0.00    +0.259 HD
ATOM     77  CZ  ARG A   2      18.056  27.028   6.709  0.00  0.00    +0.342 C 
ATOM     78  NH2 ARG A   2      18.911  26.132   6.234  0.00  0.00    -0.292 N 
ATOM     79 HH21 ARG A   2      19.544  25.622   6.883  0.00  0.00    +0.255 HD
ATOM     80 HH22 ARG A   2      18.949  25.940   5.213  0.00  0.00    +0.255 HD
ATOM     81  NH1 ARG A   2      17.259  27.664   5.857  0.00  0.00    -0.292 N 
ATOM     82 HH11 ARG A   2      16.580  28.370   6.208  0.00  0.00    +0.255 HD
ATOM     83 HH12 ARG A   2      17.314  27.456   4.839  0.00  0.00    +0.255 HD
ENDBRANCH  74  75
ENDBRANCH  73  74
ENDBRANCH  72  73
ENDBRANCH  55  72
ENDBRANCH  51  55
ENDBRANCH  50  52
BRANCH  50  84
ATOM     84  CB  THR A   3       9.781  28.120  10.439  0.00  0.00    +0.137 C 
ATOM     85  CG2 THR A   3       9.323  27.567   9.099  0.00  0.00    +0.034 C 
BRANCH  84  86
ATOM     86  OG1 THR A   3       9.867  26.983  11.316  0.00  0.00    -0.382 OA
ATOM     87  HG1 THR A   3       8.977  26.557  11.390  0.00  0.00    +0.210 HD
ENDBRANCH  84  86
ENDBRANCH  50  84
ENDBRANCH   1  50
TORSDOF 29
REMARK  Name = ../refined-set-2016/1ex8/1ex8_pocket.pdb
REMARK  257 active torsions:
REMARK  status: ('A' for Active; 'I' for Inactive)
REMARK    1  A    between atoms: _1  and  _3
REMARK    2  A    between atoms: _3  and  _4
REMARK    3  A    between atoms: _3  and  _6
REMARK    4  A    between atoms: _6  and  _7
REMARK    5  A    between atoms: _12  and  _13
REMARK    6  A    between atoms: _15  and  _17
REMARK    7  A    between atoms: _17  and  _18
REMARK    8  A    between atoms: _17  and  _20
REMARK    9  A    between atoms: _20  and  _21
REMARK   10  A    between atoms: _24  and  _26
REMARK   11  A    between atoms: _26  and  _27
REMARK   12  A    between atoms: _30  and  _32
REMARK   13  A    between atoms: _32  and  _33
REMARK   14  A    between atoms: _32  and  _35
REMARK   15  A    between atoms: _35  and  _36
REMARK   16  A    between atoms: _39  and  _41
REMARK   17  A    between atoms: _41  and  _42
REMARK   18  A    between atoms: _44  and  _46
REMARK   19  A    between atoms: _46  and  _47
REMARK   20  A    between atoms: _46  and  _49
REMARK   21  A    between atoms: _49  and  _50
REMARK   22  A    between atoms: _52  and  _54
REMARK   23  A    between atoms: _54  and  _55
REMARK   24  A    between atoms: _54  and  _57
REMARK   25  A    between atoms: _57  and  _58
REMARK   26  A    between atoms: _63  and  _65
REMARK   27  A    between atoms: _65  and  _66
REMARK   28  A    between atoms: _65  and  _68
REMARK   29  A    between atoms: _68  and  _69
REMARK   30  A    between atoms: _74  and  _75
REMARK   31  A    between atoms: _77  and  _79
REMARK   32  A    between atoms: _79  and  _80
REMARK   33  A    between atoms: _79  and  _82
REMARK   34  A    between atoms: _82  and  _83
REMARK   35  A    between atoms: _83  and  _84
REMARK   36  A    between atoms: _84  and  _85
REMARK   37  A    between atoms: _94  and  _96
REMARK   38  A    between atoms: _96  and  _97
REMARK   39  A    between atoms: _96  and  _99
REMARK   40  A    between atoms: _99  and  _100
REMARK   41  A    between atoms: _104  and  _105
REMARK   42  A    between atoms: _111  and  _112
REMARK   43  A    between atoms: _117  and  _119
REMARK   44  A    between atoms: _119  and  _120
REMARK   45  A    between atoms: _119  and  _122
REMARK   46  A    between atoms: _122  and  _123
REMARK   47  A    between atoms: _126  and  _128
REMARK   48  A    between atoms: _128  and  _129
REMARK   49  A    between atoms: _132  and  _133
REMARK   50  A    between atoms: _138  and  _140
REMARK   51  A    between atoms: _140  and  _141
REMARK   52  A    between atoms: _140  and  _143
REMARK   53  A    between atoms: _143  and  _144
REMARK   54  A    between atoms: _144  and  _145
REMARK   55  A    between atoms: _150  and  _152
REMARK   56  A    between atoms: _152  and  _153
REMARK   57  A    between atoms: _152  and  _155
REMARK   58  A    between atoms: _155  and  _156
REMARK   59  A    between atoms: _156  and  _157
REMARK   60  A    between atoms: _163  and  _164
REMARK   61  A    between atoms: _169  and  _171
REMARK   62  A    between atoms: _171  and  _172
REMARK   63  A    between atoms: _171  and  _174
REMARK   64  A    between atoms: _174  and  _175
REMARK   65  A    between atoms: _178  and  _180
REMARK   66  A    between atoms: _180  and  _181
REMARK   67  A    between atoms: _180  and  _183
REMARK   68  A    between atoms: _183  and  _184
REMARK   69  A    between atoms: _189  and  _190
REMARK   70  A    between atoms: _192  and  _194
REMARK   71  A    between atoms: _194  and  _195
REMARK   72  A    between atoms: _194  and  _197
REMARK   73  A    between atoms: _197  and  _198
REMARK   74  A    between atoms: _201  and  _203
REMARK   75  A    between atoms: _203  and  _204
REMARK   76  A    between atoms: _203  and  _206
REMARK   77  A    between atoms: _206  and  _207
REMARK   78  A    between atoms: _212  and  _214
REMARK   79  A    between atoms: _214  and  _215
REMARK   80  A    between atoms: _218  and  _220
REMARK   81  A    between atoms: _220  and  _221
REMARK   82  A    between atoms: _220  and  _223
REMARK   83  A    between atoms: _223  and  _224
REMARK   84  A    between atoms: _224  and  _225
REMARK   85  A    between atoms: _228  and  _230
REMARK   86  A    between atoms: _230  and  _231
REMARK   87  A    between atoms: _230  and  _233
REMARK   88  A    between atoms: _233  and  _234
REMARK   89  A    between atoms: _237  and  _239
REMARK   90  A    between atoms: _239  and  _240
REMARK   91  A    between atoms: _239  and  _242
REMARK   92  A    between atoms: _242  and  _243
REMARK   93  A    between atoms: _246  and  _248
REMARK   94  A    between atoms: _248  and  _249
REMARK   95  A    between atoms: _248  and  _251
REMARK   96  A    between atoms: _251  and  _252
REMARK   97  A    between atoms: _252  and  _253
REMARK   98  A    between atoms: _258  and  _260
REMARK   99  A    between atoms: _260  and  _261
REMARK  100  A    between atoms: _260  and  _263
REMARK  101  A    between atoms: _263  and  _264
REMARK  102  A    between atoms: _264  and  _265
REMARK  103  A    between atoms: _268  and  _270
REMARK  104  A    between atoms: _270  and  _271
REMARK  105  A    between atoms: _270  and  _273
REMARK  106  A    between atoms: _273  and  _274
REMARK  107  A    between atoms: _274  and  _275
REMARK  108  A    between atoms: _275  and  _276
REMARK  109  A    between atoms: _285  and  _287
REMARK  110  A    between atoms: _287  and  _288
REMARK  111  A    between atoms: _287  and  _290
REMARK  112  A    between atoms: _293  and  _295
REMARK  113  A    between atoms: _295  and  _296
REMARK  114  A    between atoms: _295  and  _298
REMARK  115  A    between atoms: _298  and  _299
REMARK  116  A    between atoms: _299  and  _300
REMARK  117  A    between atoms: _300  and  _301
REMARK  118  A    between atoms: _310  and  _312
REMARK  119  A    between atoms: _312  and  _313
REMARK  120  A    between atoms: _312  and  _315
REMARK  121  A    between atoms: _315  and  _316
REMARK  122  A    between atoms: _316  and  _317
REMARK  123  A    between atoms: _317  and  _318
REMARK  124  A    between atoms: _318  and  _319
REMARK  125  A    between atoms: _323  and  _325
REMARK  126  A    between atoms: _325  and  _326
REMARK  127  A    between atoms: _329  and  _331
REMARK  128  A    between atoms: _331  and  _332
REMARK  129  A    between atoms: _331  and  _334
REMARK  130  A    between atoms: _334  and  _335
REMARK  131  A    between atoms: _335  and  _336
REMARK  132  A    between atoms: _339  and  _341
REMARK  133  A    between atoms: _341  and  _342
REMARK  134  A    between atoms: _341  and  _344
REMARK  135  A    between atoms: _344  and  _345
REMARK  136  A    between atoms: _345  and  _346
REMARK  137  A    between atoms: _346  and  _347
REMARK  138  A    between atoms: _356  and  _358
REMARK  139  A    between atoms: _358  and  _359
REMARK  140  A    between atoms: _358  and  _361
REMARK  141  A    between atoms: _361  and  _362
REMARK  142  A    between atoms: _372  and  _374
REMARK  143  A    between atoms: _374  and  _375
REMARK  144  A    between atoms: _378  and  _379
REMARK  145  A    between atoms: _384  and  _386
REMARK  146  A    between atoms: _386  and  _387
REMARK  147  A    between atoms: _386  and  _389
REMARK  148  A    between atoms: _389  and  _390
REMARK  149  A    between atoms: _390  and  _391
REMARK  150  A    between atoms: _391  and  _392
REMARK  151  A    between atoms: _401  and  _403
REMARK  152  A    between atoms: _403  and  _404
REMARK  153  A    between atoms: _403  and  _406
REMARK  154  A    between atoms: _406  and  _407
REMARK  155  A    between atoms: _410  and  _412
REMARK  156  A    between atoms: _412  and  _413
REMARK  157  A    between atoms: _412  and  _415
REMARK  158  A    between atoms: _415  and  _416
REMARK  159  A    between atoms: _419  and  _421
REMARK  160  A    between atoms: _421  and  _422
REMARK  161  A    between atoms: _421  and  _424
REMARK  162  A    between atoms: _424  and  _425
REMARK  163  A    between atoms: _428  and  _430
REMARK  164  A    between atoms: _430  and  _431
REMARK  165  A    between atoms: _430  and  _433
REMARK  166  A    between atoms: _433  and  _434
REMARK  167  A    between atoms: _437  and  _439
REMARK  168  A    between atoms: _439  and  _440
REMARK  169  A    between atoms: _439  and  _442
REMARK  170  A    between atoms: _442  and  _443
REMARK  171  A    between atoms: _446  and  _448
REMARK  172  A    between atoms: _448  and  _449
REMARK  173  A    between atoms: _448  and  _451
REMARK  174  A    between atoms: _451  and  _452
REMARK  175  A    between atoms: _452  and  _453
REMARK  176  A    between atoms: _455  and  _457
REMARK  177  A    between atoms: _457  and  _458
REMARK  178  A    between atoms: _457  and  _460
REMARK  179  A    between atoms: _460  and  _461
REMARK  180  A    between atoms: _464  and  _466
REMARK  181  A    between atoms: _466  and  _467
REMARK  182  A    between atoms: _466  and  _469
REMARK  183  A    between atoms: _469  and  _470
REMARK  184  A    between atoms: _476  and  _478
REMARK  185  A    between atoms: _478  and  _479
REMARK  186  A    between atoms: _478  and  _481
REMARK  187  A    between atoms: _481  and  _482
REMARK  188  A    between atoms: _485  and  _487
REMARK  189  A    between atoms: _487  and  _488
REMARK  190  A    between atoms: _487  and  _490
REMARK  191  A    between atoms: _490  and  _491
REMARK  192  A    between atoms: _496  and  _498
REMARK  193  A    between atoms: _498  and  _499
REMARK  194  A    between atoms: _498  and  _501
REMARK  195  A    between atoms: _501  and  _502
REMARK  196  A    between atoms: _505  and  _507
REMARK  197  A    between atoms: _507  and  _508
REMARK  198  A    between atoms: _507  and  _510
REMARK  199  A    between atoms: _510  and  _511
REMARK  200  A    between atoms: _511  and  _512
REMARK  201  A    between atoms: _515  and  _517
REMARK  202  A    between atoms: _517  and  _518
REMARK  203  A    between atoms: _517  and  _520
REMARK  204  A    between atoms: _520  and  _521
REMARK  205  A    between atoms: _521  and  _522
REMARK  206  A    between atoms: _522  and  _523
REMARK  207  A    between atoms: _532  and  _534
REMARK  208  A    between atoms: _534  and  _535
REMARK  209  A    between atoms: _534  and  _537
REMARK  210  A    between atoms: _537  and  _538
REMARK  211  A    between atoms: _541  and  _543
REMARK  212  A    between atoms: _543  and  _544
REMARK  213  A    between atoms: _543  and  _546
REMARK  214  A    between atoms: _546  and  _547
REMARK  215  A    between atoms: _550  and  _552
REMARK  216  A    between atoms: _552  and  _553
REMARK  217  A    between atoms: _552  and  _555
REMARK  218  A    between atoms: _559  and  _560
REMARK  219  A    between atoms: _565  and  _567
REMARK  220  A    between atoms: _567  and  _568
REMARK  221  A    between atoms: _567  and  _570
REMARK  222  A    between atoms: _570  and  _571
REMARK  223  A    between atoms: _576  and  _578
REMARK  224  A    between atoms: _578  and  _579
REMARK  225  A    between atoms: _578  and  _581
REMARK  226  A    between atoms: _581  and  _582
REMARK  227  A    between atoms: _587  and  _588
REMARK  228  A    between atoms: _590  and  _592
REMARK  229  A    between atoms: _592  and  _593
REMARK  230  A    between atoms: _592  and  _595
REMARK  231  A    between atoms: _595  and  _596
REMARK  232  A    between atoms: _599  and  _601
REMARK  233  A    between atoms: _601  and  _602
REMARK  234  A    between atoms: _601  and  _604
REMARK  235  A    between atoms: _604  and  _605
REMARK  236  A    between atoms: _605  and  _606
REMARK  237  A    between atoms: _608  and  _610
REMARK  238  A    between atoms: _610  and  _611
REMARK  239  A    between atoms: _610  and  _613
REMARK  240  A    between atoms: _613  and  _614
REMARK  241  A    between atoms: _614  and  _615
REMARK  242  A    between atoms: _615  and  _616
REMARK  243  A    between atoms: _625  and  _627
REMARK  244  A    between atoms: _627  and  _628
REMARK  245  A    between atoms: _630  and  _632
REMARK  246  A    between atoms: _632  and  _633
REMARK  247  A    between atoms: _632  and  _635
REMARK  248  A    between atoms: _635  and  _636
REMARK  249  A    between atoms: _642  and  _644
REMARK  250  A    between atoms: _644  and  _645
REMARK  251  A    between atoms: _644  and  _647
REMARK  252  A    between atoms: _647  and  _648
REMARK  253  A    between atoms: _648  and  _649
REMARK  254  A    between atoms: _651  and  _653
REMARK  255  A    between atoms: _653  and  _654
REMARK  256  A    between atoms: _653  and  _656
REMARK  257  A    between atoms: _656  and  _657
REMARK                            x       y       z     vdW  Elec       q    Type
REMARK                         _______ _______ _______ _____ _____    ______ ____
ROOT
ATOM      1  CA  TYR A   4      13.070  24.887  12.974  0.00  0.00    +0.153 C 
ENDROOT
BRANCH   1   4
ATOM      2  C   ASP A   3      14.929  26.365  13.484  0.00  0.00    +0.241 C 
ATOM      3  O   ASP A   3      15.729  25.442  13.644  0.00  0.00    -0.273 OA
ATOM      4  N   TYR A   4      13.657  26.198  13.171  0.00  0.00    -0.297 N 
ATOM      5  H   TYR A   4      13.054  27.038  13.062  0.00  0.00    +0.150 HD
BRANCH   2   6
ATOM      6  CA  ASP A   3      15.389  27.816  13.633  0.00  0.00    +0.160 C 
BRANCH   6   9
ATOM      7  C   PRO A   2      16.558  27.376  15.714  0.00  0.00    +0.241 C 
ATOM      8  O   PRO A   2      15.522  27.048  16.284  0.00  0.00    -0.273 OA
ATOM      9  N   ASP A   3      16.584  27.819  14.459  0.00  0.00    -0.297 N 
ATOM     10  H   ASP A   3      17.477  28.174  14.062  0.00  0.00    +0.150 HD
BRANCH   7  17
ATOM     11  C   GLN A   1      17.385  28.326  18.497  0.00  0.00    +0.241 C 
ATOM     12  O   GLN A   1      17.060  29.329  17.857  0.00  0.00    -0.273 OA
ATOM     13  N   PRO A   2      17.810  27.247  17.841  0.00  0.00    -0.272 N 
ATOM     14  CD  PRO A   2      18.206  25.955  18.410  0.00  0.00    +0.094 C 
ATOM     15  CG  PRO A   2      18.970  25.301  17.299  0.00  0.00    +0.024 C 
ATOM     16  CB  PRO A   2      18.575  25.951  16.031  0.00  0.00    +0.031 C 
ATOM     17  CA  PRO A   2      17.919  27.293  16.393  0.00  0.00    +0.152 C 
BRANCH  11  18
ATOM     18  CA  GLN A   1      17.332  28.290  20.012  0.00  0.00    +0.145 C 
BRANCH  18  19
ATOM     19  N   GLN A   1      17.260  29.653  20.525  0.00  0.00    -0.238 NA
ATOM     20  H   GLN A   1      16.972  30.400  19.861  0.00  0.00    +0.142 HD
ENDBRANCH  18  19
BRANCH  18  21
ATOM     21  CB  GLN A   1      16.150  27.469  20.537  0.00  0.00    +0.036 C 
BRANCH  21  22
ATOM     22  CG  GLN A   1      14.863  27.657  19.758  0.00  0.00    +0.087 C 
BRANCH  22  23
ATOM     23  CD  GLN A   1      13.681  26.905  20.330  0.00  0.00    +0.219 C 
ATOM     24  NE2 GLN A   1      12.823  27.660  21.006  0.00  0.00    -0.329 N 
ATOM     25 HE21 GLN A   1      11.975  27.232  21.430  0.00  0.00    +0.145 HD
ATOM     26 HE22 GLN A   1      12.999  28.680  21.112  0.00  0.00    +0.145 HD
ATOM     27  OE1 GLN A   1      13.521  25.691  20.174  0.00  0.00    -0.275 OA
ENDBRANCH  22  23
ENDBRANCH  21  22
ENDBRANCH  18  21
ENDBRANCH  11  18
ENDBRANCH   7  17
ENDBRANCH   6   9
BRANCH   6  28
ATOM     28  CB  ASP A   3      15.630  28.419  12.255  0.00  0.00    +0.143 C 
BRANCH  28  29
ATOM     29  CG  ASP A   3      15.798  29.928  12.231  0.00  0.00    +0.367 C 
ATOM     30  OD2 ASP A   3      15.781  30.572  13.300  0.00  0.00    -0.246 OA
ATOM     31  OD1 ASP A   3      15.949  30.497  11.126  0.00  0.00    -0.246 OA
ENDBRANCH  28  29
ENDBRANCH   6  28
ENDBRANCH   2   6
ENDBRANCH   1   4
BRANCH   1  32
ATOM     32  C   TYR A   4      13.083  24.485  11.508  0.00  0.00    +0.241 C 
ATOM     33  N   LEU A   5      13.289  23.192  11.273  0.00  0.00    -0.297 N 
ATOM     34  H   LEU A   5      13.726  22.598  12.007  0.00  0.00    +0.150 HD
ATOM     35  O   TYR A   4      12.878  25.335  10.646  0.00  0.00    -0.273 OA
BRANCH  33  36
ATOM     36  CA  LEU A   5      12.908  22.599   9.997  0.00  0.00    +0.149 C 
BRANCH  36  37
ATOM     37  C   LEU A   5      11.456  22.139  10.170  0.00  0.00    +0.241 C 
ATOM     38  O   LEU A   5      11.149  21.397  11.108  0.00  0.00    -0.273 OA
ATOM     39  N   ASN A   6      10.614  22.616   9.272  0.00  0.00    -0.297 N 
ATOM     40  H   ASN A   6      10.962  23.236   8.513  0.00  0.00    +0.150 HD
BRANCH  39  41
ATOM     41  CA  ASN A   6       9.201  22.278   9.341  0.00  0.00    +0.158 C 
BRANCH  41  42
ATOM     42  C   ASN A   6       8.789  21.636   8.029  0.00  0.00    +0.241 C 
ATOM     43  N   ALA A   7       7.888  20.663   8.094  0.00  0.00    -0.298 N 
ATOM     44  H   ALA A   7       7.575  20.320   9.025  0.00  0.00    +0.150 HD
ATOM     45  O   ASN A   6       9.303  22.038   6.986  0.00  0.00    -0.273 OA
BRANCH  43  46
ATOM     46  CA  ALA A   7       7.329  20.066   6.889  0.00  0.00    +0.137 C 
ATOM     47  CB  ALA A   7       8.186  18.917   6.384  0.00  0.00    +0.030 C 
BRANCH  46  48
ATOM     48  C   ALA A   7       5.910  19.568   7.170  0.00  0.00    +0.227 C 
ATOM     49  O   ALA A   7       5.530  19.457   8.340  0.00  0.00    -0.286 OA
ENDBRANCH  46  48
ENDBRANCH  43  46
ENDBRANCH  41  42
BRANCH  41  50
ATOM     50  CB  ASN A   6       8.367  23.521   9.628  0.00  0.00    +0.114 C 
BRANCH  50  51
ATOM     51  CG  ASN A   6       8.110  23.748  11.103  0.00  0.00    +0.222 C 
ATOM     52  OD1 ASN A   6       8.647  24.675  11.715  0.00  0.00    -0.275 OA
ATOM     53  ND2 ASN A   6       7.275  22.902  11.689  0.00  0.00    -0.329 N 
ATOM     54 HD21 ASN A   6       7.052  23.007  12.699  0.00  0.00    +0.145 HD
ATOM     55 HD22 ASN A   6       6.842  22.133  11.138  0.00  0.00    +0.145 HD
ENDBRANCH  50  51
ENDBRANCH  41  50
ENDBRANCH  39  41
ENDBRANCH  36  37
BRANCH  36  56
ATOM     56  CB  LEU A   5      13.765  21.425   9.558  0.00  0.00    +0.029 C 
BRANCH  56  57
ATOM     57  CG  LEU A   5      13.810  21.115   8.069  0.00  0.00    +0.002 C 
ATOM     58  CD2 LEU A   5      15.015  20.237   7.740  0.00  0.00    +0.000 C 
ATOM     59  CD1 LEU A   5      12.542  20.424   7.575  0.00  0.00    +0.000 C 
ENDBRANCH  56  57
ENDBRANCH  36  56
ENDBRANCH  33  36
ENDBRANCH   1  32
BRANCH   1  60
ATOM     60  CB  TYR A   4      11.608  24.873  13.455  0.00  0.00    +0.055 C 
BRANCH  60  61
ATOM     61  CG  TYR A   4      11.500  24.708  14.954  0.00  0.00    -0.020 A 
ATOM     62  CD2 TYR A   4      11.892  25.738  15.800  0.00  0.00    -0.001 A 
ATOM     63  CE2 TYR A   4      11.796  25.590  17.174  0.00  0.00    +0.036 A 
ATOM     64  CZ  TYR A   4      11.313  24.422  17.716  0.00  0.00    +0.134 A 
ATOM     65  CE1 TYR A   4      10.920  23.388  16.893  0.00  0.00    +0.036 A 
ATOM     66  CD1 TYR A   4      11.023  23.546  15.522  0.00  0.00    -0.001 A 
BRANCH  64  67
ATOM     67  OH  TYR A   4      11.221  24.284  19.079  0.00  0.00    -0.506 OA
ATOM     68  HH  TYR A   4      11.542  25.112  19.516  0.00  0.00    +0.292 HD
ENDBRANCH  64  67
ENDBRANCH  60  61
ENDBRANCH   1  60
TORSDOF 25
REMARK  Name = ../refined-set-2016/1ex8/1ex8_pocket.pdb
REMARK  257 active torsions:
REMARK  status: ('A' for Active; 'I' for Inactive)
REMARK    1  A    between atoms: _1  and  _3
REMARK    2  A    between atoms: _3  and  _4
REMARK    3  A    between atoms: _3  and  _6
REMARK    4  A    between atoms: _6  and  _7
REMARK    5  A    between atoms: _12  and  _13
REMARK    6  A    between atoms: _15  and  _17
REMARK    7  A    between atoms: _17  and  _18
REMARK    8  A    between atoms: _17  and  _20
REMARK    9  A    between atoms: _20  and  _21
REMARK   10  A    between atoms: _24  and  _26
REMARK   11  A    between atoms: _26  and  _27
REMARK   12  A    between atoms: _30  and  _32
REMARK   13  A    between atoms: _32  and  _33
REMARK   14  A    between atoms: _32  and  _35
REMARK   15  A    between atoms: _35  and  _36
REMARK   16  A    between atoms: _39  and  _41
REMARK   17  A    between atoms: _41  and  _42
REMARK   18  A    between atoms: _44  and  _46
REMARK   19  A    between atoms: _46  and  _47
REMARK   20  A    between atoms: _46  and  _49
REMARK   21  A    between atoms: _49  and  _50
REMARK   22  A    between atoms: _52  and  _54
REMARK   23  A    between atoms: _54  and  _55
REMARK   24  A    between atoms: _54  and  _57
REMARK   25  A    between atoms: _57  and  _58
REMARK   26  A    between atoms: _63  and  _65
REMARK   27  A    between atoms: _65  and  _66
REMARK   28  A    between atoms: _65  and  _68
REMARK   29  A    between atoms: _68  and  _69
REMARK   30  A    between atoms: _74  and  _75
REMARK   31  A    between atoms: _77  and  _79
REMARK   32  A    between atoms: _79  and  _80
REMARK   33  A    between atoms: _79  and  _82
REMARK   34  A    between atoms: _82  and  _83
REMARK   35  A    between atoms: _83  and  _84
REMARK   36  A    between atoms: _84  and  _85
REMARK   37  A    between atoms: _94  and  _96
REMARK   38  A    between atoms: _96  and  _97
REMARK   39  A    between atoms: _96  and  _99
REMARK   40  A    between atoms: _99  and  _100
REMARK   41  A    between atoms: _104  and  _105
REMARK   42  A    between atoms: _111  and  _112
REMARK   43  A    between atoms: _117  and  _119
REMARK   44  A    between atoms: _119  and  _120
REMARK   45  A    between atoms: _119  and  _122
REMARK   46  A    between atoms: _122  and  _123
REMARK   47  A    between atoms: _126  and  _128
REMARK   48  A    between atoms: _128  and  _129
REMARK   49  A    between atoms: _132  and  _133
REMARK   50  A    between atoms: _138  and  _140
REMARK   51  A    between atoms: _140  and  _141
REMARK   52  A    between atoms: _140  and  _143
REMARK   53  A    between atoms: _143  and  _144
REMARK   54  A    between atoms: _144  and  _145
REMARK   55  A    between atoms: _150  and  _152
REMARK   56  A    between atoms: _152  and  _153
REMARK   57  A    between atoms: _152  and  _155
REMARK   58  A    between atoms: _155  and  _156
REMARK   59  A    between atoms: _156  and  _157
REMARK   60  A    between atoms: _163  and  _164
REMARK   61  A    between atoms: _169  and  _171
REMARK   62  A    between atoms: _171  and  _172
REMARK   63  A    between atoms: _171  and  _174
REMARK   64  A    between atoms: _174  and  _175
REMARK   65  A    between atoms: _178  and  _180
REMARK   66  A    between atoms: _180  and  _181
REMARK   67  A    between atoms: _180  and  _183
REMARK   68  A    between atoms: _183  and  _184
REMARK   69  A    between atoms: _189  and  _190
REMARK   70  A    between atoms: _192  and  _194
REMARK   71  A    between atoms: _194  and  _195
REMARK   72  A    between atoms: _194  and  _197
REMARK   73  A    between atoms: _197  and  _198
REMARK   74  A    between atoms: _201  and  _203
REMARK   75  A    between atoms: _203  and  _204
REMARK   76  A    between atoms: _203  and  _206
REMARK   77  A    between atoms: _206  and  _207
REMARK   78  A    between atoms: _212  and  _214
REMARK   79  A    between atoms: _214  and  _215
REMARK   80  A    between atoms: _218  and  _220
REMARK   81  A    between atoms: _220  and  _221
REMARK   82  A    between atoms: _220  and  _223
REMARK   83  A    between atoms: _223  and  _224
REMARK   84  A    between atoms: _224  and  _225
REMARK   85  A    between atoms: _228  and  _230
REMARK   86  A    between atoms: _230  and  _231
REMARK   87  A    between atoms: _230  and  _233
REMARK   88  A    between atoms: _233  and  _234
REMARK   89  A    between atoms: _237  and  _239
REMARK   90  A    between atoms: _239  and  _240
REMARK   91  A    between atoms: _239  and  _242
REMARK   92  A    between atoms: _242  and  _243
REMARK   93  A    between atoms: _246  and  _248
REMARK   94  A    between atoms: _248  and  _249
REMARK   95  A    between atoms: _248  and  _251
REMARK   96  A    between atoms: _251  and  _252
REMARK   97  A    between atoms: _252  and  _253
REMARK   98  A    between atoms: _258  and  _260
REMARK   99  A    between atoms: _260  and  _261
REMARK  100  A    between atoms: _260  and  _263
REMARK  101  A    between atoms: _263  and  _264
REMARK  102  A    between atoms: _264  and  _265
REMARK  103  A    between atoms: _268  and  _270
REMARK  104  A    between atoms: _270  and  _271
REMARK  105  A    between atoms: _270  and  _273
REMARK  106  A    between atoms: _273  and  _274
REMARK  107  A    between atoms: _274  and  _275
REMARK  108  A    between atoms: _275  and  _276
REMARK  109  A    between atoms: _285  and  _287
REMARK  110  A    between atoms: _287  and  _288
REMARK  111  A    between atoms: _287  and  _290
REMARK  112  A    between atoms: _293  and  _295
REMARK  113  A    between atoms: _295  and  _296
REMARK  114  A    between atoms: _295  and  _298
REMARK  115  A    between atoms: _298  and  _299
REMARK  116  A    between atoms: _299  and  _300
REMARK  117  A    between atoms: _300  and  _301
REMARK  118  A    between atoms: _310  and  _312
REMARK  119  A    between atoms: _312  and  _313
REMARK  120  A    between atoms: _312  and  _315
REMARK  121  A    between atoms: _315  and  _316
REMARK  122  A    between atoms: _316  and  _317
REMARK  123  A    between atoms: _317  and  _318
REMARK  124  A    between atoms: _318  and  _319
REMARK  125  A    between atoms: _323  and  _325
REMARK  126  A    between atoms: _325  and  _326
REMARK  127  A    between atoms: _329  and  _331
REMARK  128  A    between atoms: _331  and  _332
REMARK  129  A    between atoms: _331  and  _334
REMARK  130  A    between atoms: _334  and  _335
REMARK  131  A    between atoms: _335  and  _336
REMARK  132  A    between atoms: _339  and  _341
REMARK  133  A    between atoms: _341  and  _342
REMARK  134  A    between atoms: _341  and  _344
REMARK  135  A    between atoms: _344  and  _345
REMARK  136  A    between atoms: _345  and  _346
REMARK  137  A    between atoms: _346  and  _347
REMARK  138  A    between atoms: _356  and  _358
REMARK  139  A    between atoms: _358  and  _359
REMARK  140  A    between atoms: _358  and  _361
REMARK  141  A    between atoms: _361  and  _362
REMARK  142  A    between atoms: _372  and  _374
REMARK  143  A    between atoms: _374  and  _375
REMARK  144  A    between atoms: _378  and  _379
REMARK  145  A    between atoms: _384  and  _386
REMARK  146  A    between atoms: _386  and  _387
REMARK  147  A    between atoms: _386  and  _389
REMARK  148  A    between atoms: _389  and  _390
REMARK  149  A    between atoms: _390  and  _391
REMARK  150  A    between atoms: _391  and  _392
REMARK  151  A    between atoms: _401  and  _403
REMARK  152  A    between atoms: _403  and  _404
REMARK  153  A    between atoms: _403  and  _406
REMARK  154  A    between atoms: _406  and  _407
REMARK  155  A    between atoms: _410  and  _412
REMARK  156  A    between atoms: _412  and  _413
REMARK  157  A    between atoms: _412  and  _415
REMARK  158  A    between atoms: _415  and  _416
REMARK  159  A    between atoms: _419  and  _421
REMARK  160  A    between atoms: _421  and  _422
REMARK  161  A    between atoms: _421  and  _424
REMARK  162  A    between atoms: _424  and  _425
REMARK  163  A    between atoms: _428  and  _430
REMARK  164  A    between atoms: _430  and  _431
REMARK  165  A    between atoms: _430  and  _433
REMARK  166  A    between atoms: _433  and  _434
REMARK  167  A    between atoms: _437  and  _439
REMARK  168  A    between atoms: _439  and  _440
REMARK  169  A    between atoms: _439  and  _442
REMARK  170  A    between atoms: _442  and  _443
REMARK  171  A    between atoms: _446  and  _448
REMARK  172  A    between atoms: _448  and  _449
REMARK  173  A    between atoms: _448  and  _451
REMARK  174  A    between atoms: _451  and  _452
REMARK  175  A    between atoms: _452  and  _453
REMARK  176  A    between atoms: _455  and  _457
REMARK  177  A    between atoms: _457  and  _458
REMARK  178  A    between atoms: _457  and  _460
REMARK  179  A    between atoms: _460  and  _461
REMARK  180  A    between atoms: _464  and  _466
REMARK  181  A    between atoms: _466  and  _467
REMARK  182  A    between atoms: _466  and  _469
REMARK  183  A    between atoms: _469  and  _470
REMARK  184  A    between atoms: _476  and  _478
REMARK  185  A    between atoms: _478  and  _479
REMARK  186  A    between atoms: _478  and  _481
REMARK  187  A    between atoms: _481  and  _482
REMARK  188  A    between atoms: _485  and  _487
REMARK  189  A    between atoms: _487  and  _488
REMARK  190  A    between atoms: _487  and  _490
REMARK  191  A    between atoms: _490  and  _491
REMARK  192  A    between atoms: _496  and  _498
REMARK  193  A    between atoms: _498  and  _499
REMARK  194  A    between atoms: _498  and  _501
REMARK  195  A    between atoms: _501  and  _502
REMARK  196  A    between atoms: _505  and  _507
REMARK  197  A    between atoms: _507  and  _508
REMARK  198  A    between atoms: _507  and  _510
REMARK  199  A    between atoms: _510  and  _511
REMARK  200  A    between atoms: _511  and  _512
REMARK  201  A    between atoms: _515  and  _517
REMARK  202  A    between atoms: _517  and  _518
REMARK  203  A    between atoms: _517  and  _520
REMARK  204  A    between atoms: _520  and  _521
REMARK  205  A    between atoms: _521  and  _522
REMARK  206  A    between atoms: _522  and  _523
REMARK  207  A    between atoms: _532  and  _534
REMARK  208  A    between atoms: _534  and  _535
REMARK  209  A    between atoms: _534  and  _537
REMARK  210  A    between atoms: _537  and  _538
REMARK  211  A    between atoms: _541  and  _543
REMARK  212  A    between atoms: _543  and  _544
REMARK  213  A    between atoms: _543  and  _546
REMARK  214  A    between atoms: _546  and  _547
REMARK  215  A    between atoms: _550  and  _552
REMARK  216  A    between atoms: _552  and  _553
REMARK  217  A    between atoms: _552  and  _555
REMARK  218  A    between atoms: _559  and  _560
REMARK  219  A    between atoms: _565  and  _567
REMARK  220  A    between atoms: _567  and  _568
REMARK  221  A    between atoms: _567  and  _570
REMARK  222  A    between atoms: _570  and  _571
REMARK  223  A    between atoms: _576  and  _578
REMARK  224  A    between atoms: _578  and  _579
REMARK  225  A    between atoms: _578  and  _581
REMARK  226  A    between atoms: _581  and  _582
REMARK  227  A    between atoms: _587  and  _588
REMARK  228  A    between atoms: _590  and  _592
REMARK  229  A    between atoms: _592  and  _593
REMARK  230  A    between atoms: _592  and  _595
REMARK  231  A    between atoms: _595  and  _596
REMARK  232  A    between atoms: _599  and  _601
REMARK  233  A    between atoms: _601  and  _602
REMARK  234  A    between atoms: _601  and  _604
REMARK  235  A    between atoms: _604  and  _605
REMARK  236  A    between atoms: _605  and  _606
REMARK  237  A    between atoms: _608  and  _610
REMARK  238  A    between atoms: _610  and  _611
REMARK  239  A    between atoms: _610  and  _613
REMARK  240  A    between atoms: _613  and  _614
REMARK  241  A    between atoms: _614  and  _615
REMARK  242  A    between atoms: _615  and  _616
REMARK  243  A    between atoms: _625  and  _627
REMARK  244  A    between atoms: _627  and  _628
REMARK  245  A    between atoms: _630  and  _632
REMARK  246  A    between atoms: _632  and  _633
REMARK  247  A    between atoms: _632  and  _635
REMARK  248  A    between atoms: _635  and  _636
REMARK  249  A    between atoms: _642  and  _644
REMARK  250  A    between atoms: _644  and  _645
REMARK  251  A    between atoms: _644  and  _647
REMARK  252  A    between atoms: _647  and  _648
REMARK  253  A    between atoms: _648  and  _649
REMARK  254  A    between atoms: _651  and  _653
REMARK  255  A    between atoms: _653  and  _654
REMARK  256  A    between atoms: _653  and  _656
REMARK  257  A    between atoms: _656  and  _657
REMARK                            x       y       z     vdW  Elec       q    Type
REMARK                         _______ _______ _______ _____ _____    ______ ____
ROOT
ATOM      1  CA  GLU A   1      -5.204   7.527  18.834  0.00  0.00    +0.134 C 
ENDROOT
BRANCH   1   2
ATOM      2  N   GLU A   1      -6.096   7.797  17.700  0.00  0.00    -0.239 NA
ATOM      3  H   GLU A   1      -7.120   7.635  17.783  0.00  0.00    +0.142 HD
ENDBRANCH   1   2
BRANCH   1   4
ATOM      4  C   GLU A   1      -4.300   6.336  18.547  0.00  0.00    +0.224 C 
ATOM      5  O   GLU A   1      -3.231   6.149  19.135  0.00  0.00    -0.287 OA
ENDBRANCH   1   4
BRANCH   1   6
ATOM      6  CB  GLU A   1      -6.034   7.322  20.097  0.00  0.00    +0.037 C 
BRANCH   6   7
ATOM      7  CG  GLU A   1      -6.802   8.571  20.506  0.00  0.00    +0.116 C 
BRANCH   7   8
ATOM      8  CD  GLU A   1      -7.253   8.555  21.951  0.00  0.00    +0.365 C 
ATOM      9  OE2 GLU A   1      -7.104   9.598  22.622  0.00  0.00    -0.246 OA
ATOM     10  OE1 GLU A   1      -7.761   7.513  22.422  0.00  0.00    -0.246 OA
ENDBRANCH   7   8
ENDBRANCH   6   7
ENDBRANCH   1   6
TORSDOF 5
REMARK  Name = ../refined-set-2016/1ex8/1ex8_pocket.pdb
REMARK  257 active torsions:
REMARK  status: ('A' for Active; 'I' for Inactive)
REMARK    1  A    between atoms: _1  and  _3
REMARK    2  A    between atoms: _3  and  _4
REMARK    3  A    between atoms: _3  and  _6
REMARK    4  A    between atoms: _6  and  _7
REMARK    5  A    between atoms: _12  and  _13
REMARK    6  A    between atoms: _15  and  _17
REMARK    7  A    between atoms: _17  and  _18
REMARK    8  A    between atoms: _17  and  _20
REMARK    9  A    between atoms: _20  and  _21
REMARK   10  A    between atoms: _24  and  _26
REMARK   11  A    between atoms: _26  and  _27
REMARK   12  A    between atoms: _30  and  _32
REMARK   13  A    between atoms: _32  and  _33
REMARK   14  A    between atoms: _32  and  _35
REMARK   15  A    between atoms: _35  and  _36
REMARK   16  A    between atoms: _39  and  _41
REMARK   17  A    between atoms: _41  and  _42
REMARK   18  A    between atoms: _44  and  _46
REMARK   19  A    between atoms: _46  and  _47
REMARK   20  A    between atoms: _46  and  _49
REMARK   21  A    between atoms: _49  and  _50
REMARK   22  A    between atoms: _52  and  _54
REMARK   23  A    between atoms: _54  and  _55
REMARK   24  A    between atoms: _54  and  _57
REMARK   25  A    between atoms: _57  and  _58
REMARK   26  A    between atoms: _63  and  _65
REMARK   27  A    between atoms: _65  and  _66
REMARK   28  A    between atoms: _65  and  _68
REMARK   29  A    between atoms: _68  and  _69
REMARK   30  A    between atoms: _74  and  _75
REMARK   31  A    between atoms: _77  and  _79
REMARK   32  A    between atoms: _79  and  _80
REMARK   33  A    between atoms: _79  and  _82
REMARK   34  A    between atoms: _82  and  _83
REMARK   35  A    between atoms: _83  and  _84
REMARK   36  A    between atoms: _84  and  _85
REMARK   37  A    between atoms: _94  and  _96
REMARK   38  A    between atoms: _96  and  _97
REMARK   39  A    between atoms: _96  and  _99
REMARK   40  A    between atoms: _99  and  _100
REMARK   41  A    between atoms: _104  and  _105
REMARK   42  A    between atoms: _111  and  _112
REMARK   43  A    between atoms: _117  and  _119
REMARK   44  A    between atoms: _119  and  _120
REMARK   45  A    between atoms: _119  and  _122
REMARK   46  A    between atoms: _122  and  _123
REMARK   47  A    between atoms: _126  and  _128
REMARK   48  A    between atoms: _128  and  _129
REMARK   49  A    between atoms: _132  and  _133
REMARK   50  A    between atoms: _138  and  _140
REMARK   51  A    between atoms: _140  and  _141
REMARK   52  A    between atoms: _140  and  _143
REMARK   53  A    between atoms: _143  and  _144
REMARK   54  A    between atoms: _144  and  _145
REMARK   55  A    between atoms: _150  and  _152
REMARK   56  A    between atoms: _152  and  _153
REMARK   57  A    between atoms: _152  and  _155
REMARK   58  A    between atoms: _155  and  _156
REMARK   59  A    between atoms: _156  and  _157
REMARK   60  A    between atoms: _163  and  _164
REMARK   61  A    between atoms: _169  and  _171
REMARK   62  A    between atoms: _171  and  _172
REMARK   63  A    between atoms: _171  and  _174
REMARK   64  A    between atoms: _174  and  _175
REMARK   65  A    between atoms: _178  and  _180
REMARK   66  A    between atoms: _180  and  _181
REMARK   67  A    between atoms: _180  and  _183
REMARK   68  A    between atoms: _183  and  _184
REMARK   69  A    between atoms: _189  and  _190
REMARK   70  A    between atoms: _192  and  _194
REMARK   71  A    between atoms: _194  and  _195
REMARK   72  A    between atoms: _194  and  _197
REMARK   73  A    between atoms: _197  and  _198
REMARK   74  A    between atoms: _201  and  _203
REMARK   75  A    between atoms: _203  and  _204
REMARK   76  A    between atoms: _203  and  _206
REMARK   77  A    between atoms: _206  and  _207
REMARK   78  A    between atoms: _212  and  _214
REMARK   79  A    between atoms: _214  and  _215
REMARK   80  A    between atoms: _218  and  _220
REMARK   81  A    between atoms: _220  and  _221
REMARK   82  A    between atoms: _220  and  _223
REMARK   83  A    between atoms: _223  and  _224
REMARK   84  A    between atoms: _224  and  _225
REMARK   85  A    between atoms: _228  and  _230
REMARK   86  A    between atoms: _230  and  _231
REMARK   87  A    between atoms: _230  and  _233
REMARK   88  A    between atoms: _233  and  _234
REMARK   89  A    between atoms: _237  and  _239
REMARK   90  A    between atoms: _239  and  _240
REMARK   91  A    between atoms: _239  and  _242
REMARK   92  A    between atoms: _242  and  _243
REMARK   93  A    between atoms: _246  and  _248
REMARK   94  A    between atoms: _248  and  _249
REMARK   95  A    between atoms: _248  and  _251
REMARK   96  A    between atoms: _251  and  _252
REMARK   97  A    between atoms: _252  and  _253
REMARK   98  A    between atoms: _258  and  _260
REMARK   99  A    between atoms: _260  and  _261
REMARK  100  A    between atoms: _260  and  _263
REMARK  101  A    between atoms: _263  and  _264
REMARK  102  A    between atoms: _264  and  _265
REMARK  103  A    between atoms: _268  and  _270
REMARK  104  A    between atoms: _270  and  _271
REMARK  105  A    between atoms: _270  and  _273
REMARK  106  A    between atoms: _273  and  _274
REMARK  107  A    between atoms: _274  and  _275
REMARK  108  A    between atoms: _275  and  _276
REMARK  109  A    between atoms: _285  and  _287
REMARK  110  A    between atoms: _287  and  _288
REMARK  111  A    between atoms: _287  and  _290
REMARK  112  A    between atoms: _293  and  _295
REMARK  113  A    between atoms: _295  and  _296
REMARK  114  A    between atoms: _295  and  _298
REMARK  115  A    between atoms: _298  and  _299
REMARK  116  A    between atoms: _299  and  _300
REMARK  117  A    between atoms: _300  and  _301
REMARK  118  A    between atoms: _310  and  _312
REMARK  119  A    between atoms: _312  and  _313
REMARK  120  A    between atoms: _312  and  _315
REMARK  121  A    between atoms: _315  and  _316
REMARK  122  A    between atoms: _316  and  _317
REMARK  123  A    between atoms: _317  and  _318
REMARK  124  A    between atoms: _318  and  _319
REMARK  125  A    between atoms: _323  and  _325
REMARK  126  A    between atoms: _325  and  _326
REMARK  127  A    between atoms: _329  and  _331
REMARK  128  A    between atoms: _331  and  _332
REMARK  129  A    between atoms: _331  and  _334
REMARK  130  A    between atoms: _334  and  _335
REMARK  131  A    between atoms: _335  and  _336
REMARK  132  A    between atoms: _339  and  _341
REMARK  133  A    between atoms: _341  and  _342
REMARK  134  A    between atoms: _341  and  _344
REMARK  135  A    between atoms: _344  and  _345
REMARK  136  A    between atoms: _345  and  _346
REMARK  137  A    between atoms: _346  and  _347
REMARK  138  A    between atoms: _356  and  _358
REMARK  139  A    between atoms: _358  and  _359
REMARK  140  A    between atoms: _358  and  _361
REMARK  141  A    between atoms: _361  and  _362
REMARK  142  A    between atoms: _372  and  _374
REMARK  143  A    between atoms: _374  and  _375
REMARK  144  A    between atoms: _378  and  _379
REMARK  145  A    between atoms: _384  and  _386
REMARK  146  A    between atoms: _386  and  _387
REMARK  147  A    between atoms: _386  and  _389
REMARK  148  A    between atoms: _389  and  _390
REMARK  149  A    between atoms: _390  and  _391
REMARK  150  A    between atoms: _391  and  _392
REMARK  151  A    between atoms: _401  and  _403
REMARK  152  A    between atoms: _403  and  _404
REMARK  153  A    between atoms: _403  and  _406
REMARK  154  A    between atoms: _406  and  _407
REMARK  155  A    between atoms: _410  and  _412
REMARK  156  A    between atoms: _412  and  _413
REMARK  157  A    between atoms: _412  and  _415
REMARK  158  A    between atoms: _415  and  _416
REMARK  159  A    between atoms: _419  and  _421
REMARK  160  A    between atoms: _421  and  _422
REMARK  161  A    between atoms: _421  and  _424
REMARK  162  A    between atoms: _424  and  _425
REMARK  163  A    between atoms: _428  and  _430
REMARK  164  A    between atoms: _430  and  _431
REMARK  165  A    between atoms: _430  and  _433
REMARK  166  A    between atoms: _433  and  _434
REMARK  167  A    between atoms: _437  and  _439
REMARK  168  A    between atoms: _439  and  _440
REMARK  169  A    between atoms: _439  and  _442
REMARK  170  A    between atoms: _442  and  _443
REMARK  171  A    between atoms: _446  and  _448
REMARK  172  A    between atoms: _448  and  _449
REMARK  173  A    between atoms: _448  and  _451
REMARK  174  A    between atoms: _451  and  _452
REMARK  175  A    between atoms: _452  and  _453
REMARK  176  A    between atoms: _455  and  _457
REMARK  177  A    between atoms: _457  and  _458
REMARK  178  A    between atoms: _457  and  _460
REMARK  179  A    between atoms: _460  and  _461
REMARK  180  A    between atoms: _464  and  _466
REMARK  181  A    between atoms: _466  and  _467
REMARK  182  A    between atoms: _466  and  _469
REMARK  183  A    between atoms: _469  and  _470
REMARK  184  A    between atoms: _476  and  _478
REMARK  185  A    between atoms: _478  and  _479
REMARK  186  A    between atoms: _478  and  _481
REMARK  187  A    between atoms: _481  and  _482
REMARK  188  A    between atoms: _485  and  _487
REMARK  189  A    between atoms: _487  and  _488
REMARK  190  A    between atoms: _487  and  _490
REMARK  191  A    between atoms: _490  and  _491
REMARK  192  A    between atoms: _496  and  _498
REMARK  193  A    between atoms: _498  and  _499
REMARK  194  A    between atoms: _498  and  _501
REMARK  195  A    between atoms: _501  and  _502
REMARK  196  A    between atoms: _505  and  _507
REMARK  197  A    between atoms: _507  and  _508
REMARK  198  A    between atoms: _507  and  _510
REMARK  199  A    between atoms: _510  and  _511
REMARK  200  A    between atoms: _511  and  _512
REMARK  201  A    between atoms: _515  and  _517
REMARK  202  A    between atoms: _517  and  _518
REMARK  203  A    between atoms: _517  and  _520
REMARK  204  A    between atoms: _520  and  _521
REMARK  205  A    between atoms: _521  and  _522
REMARK  206  A    between atoms: _522  and  _523
REMARK  207  A    between atoms: _532  and  _534
REMARK  208  A    between atoms: _534  and  _535
REMARK  209  A    between atoms: _534  and  _537
REMARK  210  A    between atoms: _537  and  _538
REMARK  211  A    between atoms: _541  and  _543
REMARK  212  A    between atoms: _543  and  _544
REMARK  213  A    between atoms: _543  and  _546
REMARK  214  A    between atoms: _546  and  _547
REMARK  215  A    between atoms: _550  and  _552
REMARK  216  A    between atoms: _552  and  _553
REMARK  217  A    between atoms: _552  and  _555
REMARK  218  A    between atoms: _559  and  _560
REMARK  219  A    between atoms: _565  and  _567
REMARK  220  A    between atoms: _567  and  _568
REMARK  221  A    between atoms: _567  and  _570
REMARK  222  A    between atoms: _570  and  _571
REMARK  223  A    between atoms: _576  and  _578
REMARK  224  A    between atoms: _578  and  _579
REMARK  225  A    between atoms: _578  and  _581
REMARK  226  A    between atoms: _581  and  _582
REMARK  227  A    between atoms: _587  and  _588
REMARK  228  A    between atoms: _590  and  _592
REMARK  229  A    between atoms: _592  and  _593
REMARK  230  A    between atoms: _592  and  _595
REMARK  231  A    between atoms: _595  and  _596
REMARK  232  A    between atoms: _599  and  _601
REMARK  233  A    between atoms: _601  and  _602
REMARK  234  A    between atoms: _601  and  _604
REMARK  235  A    between atoms: _604  and  _605
REMARK  236  A    between atoms: _605  and  _606
REMARK  237  A    between atoms: _608  and  _610
REMARK  238  A    between atoms: _610  and  _611
REMARK  239  A    between atoms: _610  and  _613
REMARK  240  A    between atoms: _613  and  _614
REMARK  241  A    between atoms: _614  and  _615
REMARK  242  A    between atoms: _615  and  _616
REMARK  243  A    between atoms: _625  and  _627
REMARK  244  A    between atoms: _627  and  _628
REMARK  245  A    between atoms: _630  and  _632
REMARK  246  A    between atoms: _632  and  _633
REMARK  247  A    between atoms: _632  and  _635
REMARK  248  A    between atoms: _635  and  _636
REMARK  249  A    between atoms: _642  and  _644
REMARK  250  A    between atoms: _644  and  _645
REMARK  251  A    between atoms: _644  and  _647
REMARK  252  A    between atoms: _647  and  _648
REMARK  253  A    between atoms: _648  and  _649
REMARK  254  A    between atoms: _651  and  _653
REMARK  255  A    between atoms: _653  and  _654
REMARK  256  A    between atoms: _653  and  _656
REMARK  257  A    between atoms: _656  and  _657
REMARK                            x       y       z     vdW  Elec       q    Type
REMARK                         _______ _______ _______ _____ _____    ______ ____
ROOT
ATOM      1  CA  LEU A   1      -0.655   8.658  17.965  0.00  0.00    +0.133 C 
ENDROOT
BRANCH   1   2
ATOM      2  N   LEU A   1      -1.457   7.900  16.999  0.00  0.00    -0.239 NA
ATOM      3  H   LEU A   1      -2.462   7.725  17.200  0.00  0.00    +0.142 HD
ENDBRANCH   1   2
BRANCH   1   4
ATOM      4  C   LEU A   1       0.339   7.764  18.690  0.00  0.00    +0.224 C 
ATOM      5  O   LEU A   1       1.474   8.130  19.009  0.00  0.00    -0.287 OA
ENDBRANCH   1   4
BRANCH   1   6
ATOM      6  CB  LEU A   1      -1.584   9.366  18.953  0.00  0.00    +0.025 C 
BRANCH   6   7
ATOM      7  CG  LEU A   1      -0.985  10.328  19.971  0.00  0.00    +0.002 C 
ATOM      8  CD2 LEU A   1      -2.049  10.789  20.963  0.00  0.00    +0.000 C 
ATOM      9  CD1 LEU A   1      -0.336  11.527  19.289  0.00  0.00    +0.000 C 
ENDBRANCH   6   7
ENDBRANCH   1   6
TORSDOF 4
REMARK  Name = ../refined-set-2016/1ex8/1ex8_pocket.pdb
REMARK  257 active torsions:
REMARK  status: ('A' for Active; 'I' for Inactive)
REMARK    1  A    between atoms: _1  and  _3
REMARK    2  A    between atoms: _3  and  _4
REMARK    3  A    between atoms: _3  and  _6
REMARK    4  A    between atoms: _6  and  _7
REMARK    5  A    between atoms: _12  and  _13
REMARK    6  A    between atoms: _15  and  _17
REMARK    7  A    between atoms: _17  and  _18
REMARK    8  A    between atoms: _17  and  _20
REMARK    9  A    between atoms: _20  and  _21
REMARK   10  A    between atoms: _24  and  _26
REMARK   11  A    between atoms: _26  and  _27
REMARK   12  A    between atoms: _30  and  _32
REMARK   13  A    between atoms: _32  and  _33
REMARK   14  A    between atoms: _32  and  _35
REMARK   15  A    between atoms: _35  and  _36
REMARK   16  A    between atoms: _39  and  _41
REMARK   17  A    between atoms: _41  and  _42
REMARK   18  A    between atoms: _44  and  _46
REMARK   19  A    between atoms: _46  and  _47
REMARK   20  A    between atoms: _46  and  _49
REMARK   21  A    between atoms: _49  and  _50
REMARK   22  A    between atoms: _52  and  _54
REMARK   23  A    between atoms: _54  and  _55
REMARK   24  A    between atoms: _54  and  _57
REMARK   25  A    between atoms: _57  and  _58
REMARK   26  A    between atoms: _63  and  _65
REMARK   27  A    between atoms: _65  and  _66
REMARK   28  A    between atoms: _65  and  _68
REMARK   29  A    between atoms: _68  and  _69
REMARK   30  A    between atoms: _74  and  _75
REMARK   31  A    between atoms: _77  and  _79
REMARK   32  A    between atoms: _79  and  _80
REMARK   33  A    between atoms: _79  and  _82
REMARK   34  A    between atoms: _82  and  _83
REMARK   35  A    between atoms: _83  and  _84
REMARK   36  A    between atoms: _84  and  _85
REMARK   37  A    between atoms: _94  and  _96
REMARK   38  A    between atoms: _96  and  _97
REMARK   39  A    between atoms: _96  and  _99
REMARK   40  A    between atoms: _99  and  _100
REMARK   41  A    between atoms: _104  and  _105
REMARK   42  A    between atoms: _111  and  _112
REMARK   43  A    between atoms: _117  and  _119
REMARK   44  A    between atoms: _119  and  _120
REMARK   45  A    between atoms: _119  and  _122
REMARK   46  A    between atoms: _122  and  _123
REMARK   47  A    between atoms: _126  and  _128
REMARK   48  A    between atoms: _128  and  _129
REMARK   49  A    between atoms: _132  and  _133
REMARK   50  A    between atoms: _138  and  _140
REMARK   51  A    between atoms: _140  and  _141
REMARK   52  A    between atoms: _140  and  _143
REMARK   53  A    between atoms: _143  and  _144
REMARK   54  A    between atoms: _144  and  _145
REMARK   55  A    between atoms: _150  and  _152
REMARK   56  A    between atoms: _152  and  _153
REMARK   57  A    between atoms: _152  and  _155
REMARK   58  A    between atoms: _155  and  _156
REMARK   59  A    between atoms: _156  and  _157
REMARK   60  A    between atoms: _163  and  _164
REMARK   61  A    between atoms: _169  and  _171
REMARK   62  A    between atoms: _171  and  _172
REMARK   63  A    between atoms: _171  and  _174
REMARK   64  A    between atoms: _174  and  _175
REMARK   65  A    between atoms: _178  and  _180
REMARK   66  A    between atoms: _180  and  _181
REMARK   67  A    between atoms: _180  and  _183
REMARK   68  A    between atoms: _183  and  _184
REMARK   69  A    between atoms: _189  and  _190
REMARK   70  A    between atoms: _192  and  _194
REMARK   71  A    between atoms: _194  and  _195
REMARK   72  A    between atoms: _194  and  _197
REMARK   73  A    between atoms: _197  and  _198
REMARK   74  A    between atoms: _201  and  _203
REMARK   75  A    between atoms: _203  and  _204
REMARK   76  A    between atoms: _203  and  _206
REMARK   77  A    between atoms: _206  and  _207
REMARK   78  A    between atoms: _212  and  _214
REMARK   79  A    between atoms: _214  and  _215
REMARK   80  A    between atoms: _218  and  _220
REMARK   81  A    between atoms: _220  and  _221
REMARK   82  A    between atoms: _220  and  _223
REMARK   83  A    between atoms: _223  and  _224
REMARK   84  A    between atoms: _224  and  _225
REMARK   85  A    between atoms: _228  and  _230
REMARK   86  A    between atoms: _230  and  _231
REMARK   87  A    between atoms: _230  and  _233
REMARK   88  A    between atoms: _233  and  _234
REMARK   89  A    between atoms: _237  and  _239
REMARK   90  A    between atoms: _239  and  _240
REMARK   91  A    between atoms: _239  and  _242
REMARK   92  A    between atoms: _242  and  _243
REMARK   93  A    between atoms: _246  and  _248
REMARK   94  A    between atoms: _248  and  _249
REMARK   95  A    between atoms: _248  and  _251
REMARK   96  A    between atoms: _251  and  _252
REMARK   97  A    between atoms: _252  and  _253
REMARK   98  A    between atoms: _258  and  _260
REMARK   99  A    between atoms: _260  and  _261
REMARK  100  A    between atoms: _260  and  _263
REMARK  101  A    between atoms: _263  and  _264
REMARK  102  A    between atoms: _264  and  _265
REMARK  103  A    between atoms: _268  and  _270
REMARK  104  A    between atoms: _270  and  _271
REMARK  105  A    between atoms: _270  and  _273
REMARK  106  A    between atoms: _273  and  _274
REMARK  107  A    between atoms: _274  and  _275
REMARK  108  A    between atoms: _275  and  _276
REMARK  109  A    between atoms: _285  and  _287
REMARK  110  A    between atoms: _287  and  _288
REMARK  111  A    between atoms: _287  and  _290
REMARK  112  A    between atoms: _293  and  _295
REMARK  113  A    between atoms: _295  and  _296
REMARK  114  A    between atoms: _295  and  _298
REMARK  115  A    between atoms: _298  and  _299
REMARK  116  A    between atoms: _299  and  _300
REMARK  117  A    between atoms: _300  and  _301
REMARK  118  A    between atoms: _310  and  _312
REMARK  119  A    between atoms: _312  and  _313
REMARK  120  A    between atoms: _312  and  _315
REMARK  121  A    between atoms: _315  and  _316
REMARK  122  A    between atoms: _316  and  _317
REMARK  123  A    between atoms: _317  and  _318
REMARK  124  A    between atoms: _318  and  _319
REMARK  125  A    between atoms: _323  and  _325
REMARK  126  A    between atoms: _325  and  _326
REMARK  127  A    between atoms: _329  and  _331
REMARK  128  A    between atoms: _331  and  _332
REMARK  129  A    between atoms: _331  and  _334
REMARK  130  A    between atoms: _334  and  _335
REMARK  131  A    between atoms: _335  and  _336
REMARK  132  A    between atoms: _339  and  _341
REMARK  133  A    between atoms: _341  and  _342
REMARK  134  A    between atoms: _341  and  _344
REMARK  135  A    between atoms: _344  and  _345
REMARK  136  A    between atoms: _345  and  _346
REMARK  137  A    between atoms: _346  and  _347
REMARK  138  A    between atoms: _356  and  _358
REMARK  139  A    between atoms: _358  and  _359
REMARK  140  A    between atoms: _358  and  _361
REMARK  141  A    between atoms: _361  and  _362
REMARK  142  A    between atoms: _372  and  _374
REMARK  143  A    between atoms: _374  and  _375
REMARK  144  A    between atoms: _378  and  _379
REMARK  145  A    between atoms: _384  and  _386
REMARK  146  A    between atoms: _386  and  _387
REMARK  147  A    between atoms: _386  and  _389
REMARK  148  A    between atoms: _389  and  _390
REMARK  149  A    between atoms: _390  and  _391
REMARK  150  A    between atoms: _391  and  _392
REMARK  151  A    between atoms: _401  and  _403
REMARK  152  A    between atoms: _403  and  _404
REMARK  153  A    between atoms: _403  and  _406
REMARK  154  A    between atoms: _406  and  _407
REMARK  155  A    between atoms: _410  and  _412
REMARK  156  A    between atoms: _412  and  _413
REMARK  157  A    between atoms: _412  and  _415
REMARK  158  A    between atoms: _415  and  _416
REMARK  159  A    between atoms: _419  and  _421
REMARK  160  A    between atoms: _421  and  _422
REMARK  161  A    between atoms: _421  and  _424
REMARK  162  A    between atoms: _424  and  _425
REMARK  163  A    between atoms: _428  and  _430
REMARK  164  A    between atoms: _430  and  _431
REMARK  165  A    between atoms: _430  and  _433
REMARK  166  A    between atoms: _433  and  _434
REMARK  167  A    between atoms: _437  and  _439
REMARK  168  A    between atoms: _439  and  _440
REMARK  169  A    between atoms: _439  and  _442
REMARK  170  A    between atoms: _442  and  _443
REMARK  171  A    between atoms: _446  and  _448
REMARK  172  A    between atoms: _448  and  _449
REMARK  173  A    between atoms: _448  and  _451
REMARK  174  A    between atoms: _451  and  _452
REMARK  175  A    between atoms: _452  and  _453
REMARK  176  A    between atoms: _455  and  _457
REMARK  177  A    between atoms: _457  and  _458
REMARK  178  A    between atoms: _457  and  _460
REMARK  179  A    between atoms: _460  and  _461
REMARK  180  A    between atoms: _464  and  _466
REMARK  181  A    between atoms: _466  and  _467
REMARK  182  A    between atoms: _466  and  _469
REMARK  183  A    between atoms: _469  and  _470
REMARK  184  A    between atoms: _476  and  _478
REMARK  185  A    between atoms: _478  and  _479
REMARK  186  A    between atoms: _478  and  _481
REMARK  187  A    between atoms: _481  and  _482
REMARK  188  A    between atoms: _485  and  _487
REMARK  189  A    between atoms: _487  and  _488
REMARK  190  A    between atoms: _487  and  _490
REMARK  191  A    between atoms: _490  and  _491
REMARK  192  A    between atoms: _496  and  _498
REMARK  193  A    between atoms: _498  and  _499
REMARK  194  A    between atoms: _498  and  _501
REMARK  195  A    between atoms: _501  and  _502
REMARK  196  A    between atoms: _505  and  _507
REMARK  197  A    between atoms: _507  and  _508
REMARK  198  A    between atoms: _507  and  _510
REMARK  199  A    between atoms: _510  and  _511
REMARK  200  A    between atoms: _511  and  _512
REMARK  201  A    between atoms: _515  and  _517
REMARK  202  A    between atoms: _517  and  _518
REMARK  203  A    between atoms: _517  and  _520
REMARK  204  A    between atoms: _520  and  _521
REMARK  205  A    between atoms: _521  and  _522
REMARK  206  A    between atoms: _522  and  _523
REMARK  207  A    between atoms: _532  and  _534
REMARK  208  A    between atoms: _534  and  _535
REMARK  209  A    between atoms: _534  and  _537
REMARK  210  A    between atoms: _537  and  _538
REMARK  211  A    between atoms: _541  and  _543
REMARK  212  A    between atoms: _543  and  _544
REMARK  213  A    between atoms: _543  and  _546
REMARK  214  A    between atoms: _546  and  _547
REMARK  215  A    between atoms: _550  and  _552
REMARK  216  A    between atoms: _552  and  _553
REMARK  217  A    between atoms: _552  and  _555
REMARK  218  A    between atoms: _559  and  _560
REMARK  219  A    between atoms: _565  and  _567
REMARK  220  A    between atoms: _567  and  _568
REMARK  221  A    between atoms: _567  and  _570
REMARK  222  A    between atoms: _570  and  _571
REMARK  223  A    between atoms: _576  and  _578
REMARK  224  A    between atoms: _578  and  _579
REMARK  225  A    between atoms: _578  and  _581
REMARK  226  A    between atoms: _581  and  _582
REMARK  227  A    between atoms: _587  and  _588
REMARK  228  A    between atoms: _590  and  _592
REMARK  229  A    between atoms: _592  and  _593
REMARK  230  A    between atoms: _592  and  _595
REMARK  231  A    between atoms: _595  and  _596
REMARK  232  A    between atoms: _599  and  _601
REMARK  233  A    between atoms: _601  and  _602
REMARK  234  A    between atoms: _601  and  _604
REMARK  235  A    between atoms: _604  and  _605
REMARK  236  A    between atoms: _605  and  _606
REMARK  237  A    between atoms: _608  and  _610
REMARK  238  A    between atoms: _610  and  _611
REMARK  239  A    between atoms: _610  and  _613
REMARK  240  A    between atoms: _613  and  _614
REMARK  241  A    between atoms: _614  and  _615
REMARK  242  A    between atoms: _615  and  _616
REMARK  243  A    between atoms: _625  and  _627
REMARK  244  A    between atoms: _627  and  _628
REMARK  245  A    between atoms: _630  and  _632
REMARK  246  A    between atoms: _632  and  _633
REMARK  247  A    between atoms: _632  and  _635
REMARK  248  A    between atoms: _635  and  _636
REMARK  249  A    between atoms: _642  and  _644
REMARK  250  A    between atoms: _644  and  _645
REMARK  251  A    between atoms: _644  and  _647
REMARK  252  A    between atoms: _647  and  _648
REMARK  253  A    between atoms: _648  and  _649
REMARK  254  A    between atoms: _651  and  _653
REMARK  255  A    between atoms: _653  and  _654
REMARK  256  A    between atoms: _653  and  _656
REMARK  257  A    between atoms: _656  and  _657
REMARK                            x       y       z     vdW  Elec       q    Type
REMARK                         _______ _______ _______ _____ _____    ______ ____
ROOT
ATOM      1  C   THR A   1       4.835   8.871  17.149  0.00  0.00    +0.241 C 
ATOM      2  N   GLN A   2       4.204   8.610  18.294  0.00  0.00    -0.298 N 
ATOM      3  H   GLN A   2       3.251   8.194  18.307  0.00  0.00    +0.150 HD
ATOM      4  O   THR A   1       5.974   9.346  17.150  0.00  0.00    -0.274 OA
ENDROOT
BRANCH   1   5
ATOM      5  CA  THR A   1       4.080   8.600  15.855  0.00  0.00    +0.172 C 
BRANCH   5   6
ATOM      6  N   THR A   1       3.246   7.398  15.921  0.00  0.00    -0.236 NA
ATOM      7  H   THR A   1       2.239   7.458  15.668  0.00  0.00    +0.142 HD
ENDBRANCH   5   6
BRANCH   5   8
ATOM      8  CB  THR A   1       3.279   9.893  15.563  0.00  0.00    +0.135 C 
ATOM      9  CG2 THR A   1       2.513   9.770  14.264  0.00  0.00    +0.034 C 
BRANCH   8  10
ATOM     10  OG1 THR A   1       2.324  10.112  16.611  0.00  0.00    -0.383 OA
ATOM     11  HG1 THR A   1       2.799  10.206  17.474  0.00  0.00    +0.210 HD
ENDBRANCH   8  10
ENDBRANCH   5   8
ENDBRANCH   1   5
BRANCH   2  12
ATOM     12  CA  GLN A   2       4.914   8.935  19.530  0.00  0.00    +0.137 C 
BRANCH  12  13
ATOM     13  C   GLN A   2       6.073   7.970  19.741  0.00  0.00    +0.227 C 
ATOM     14  O   GLN A   2       7.083   8.312  20.355  0.00  0.00    -0.286 OA
ENDBRANCH  12  13
BRANCH  12  15
ATOM     15  CB  GLN A   2       3.969   8.922  20.727  0.00  0.00    +0.037 C 
BRANCH  15  16
ATOM     16  CG  GLN A   2       2.838   9.942  20.648  0.00  0.00    +0.087 C 
BRANCH  16  17
ATOM     17  CD  GLN A   2       2.195  10.078  22.016  0.00  0.00    +0.219 C 
ATOM     18  OE1 GLN A   2       2.142   9.105  22.774  0.00  0.00    -0.275 OA
ATOM     19  NE2 GLN A   2       1.709  11.270  22.327  0.00  0.00    -0.329 N 
ATOM     20 HE21 GLN A   2       1.255  11.422  23.250  0.00  0.00    +0.145 HD
ATOM     21 HE22 GLN A   2       1.782  12.055  21.648  0.00  0.00    +0.145 HD
ENDBRANCH  16  17
ENDBRANCH  15  16
ENDBRANCH  12  15
ENDBRANCH   2  12
TORSDOF 9
REMARK  Name = ../refined-set-2016/1ex8/1ex8_pocket.pdb
REMARK  257 active torsions:
REMARK  status: ('A' for Active; 'I' for Inactive)
REMARK    1  A    between atoms: _1  and  _3
REMARK    2  A    between atoms: _3  and  _4
REMARK    3  A    between atoms: _3  and  _6
REMARK    4  A    between atoms: _6  and  _7
REMARK    5  A    between atoms: _12  and  _13
REMARK    6  A    between atoms: _15  and  _17
REMARK    7  A    between atoms: _17  and  _18
REMARK    8  A    between atoms: _17  and  _20
REMARK    9  A    between atoms: _20  and  _21
REMARK   10  A    between atoms: _24  and  _26
REMARK   11  A    between atoms: _26  and  _27
REMARK   12  A    between atoms: _30  and  _32
REMARK   13  A    between atoms: _32  and  _33
REMARK   14  A    between atoms: _32  and  _35
REMARK   15  A    between atoms: _35  and  _36
REMARK   16  A    between atoms: _39  and  _41
REMARK   17  A    between atoms: _41  and  _42
REMARK   18  A    between atoms: _44  and  _46
REMARK   19  A    between atoms: _46  and  _47
REMARK   20  A    between atoms: _46  and  _49
REMARK   21  A    between atoms: _49  and  _50
REMARK   22  A    between atoms: _52  and  _54
REMARK   23  A    between atoms: _54  and  _55
REMARK   24  A    between atoms: _54  and  _57
REMARK   25  A    between atoms: _57  and  _58
REMARK   26  A    between atoms: _63  and  _65
REMARK   27  A    between atoms: _65  and  _66
REMARK   28  A    between atoms: _65  and  _68
REMARK   29  A    between atoms: _68  and  _69
REMARK   30  A    between atoms: _74  and  _75
REMARK   31  A    between atoms: _77  and  _79
REMARK   32  A    between atoms: _79  and  _80
REMARK   33  A    between atoms: _79  and  _82
REMARK   34  A    between atoms: _82  and  _83
REMARK   35  A    between atoms: _83  and  _84
REMARK   36  A    between atoms: _84  and  _85
REMARK   37  A    between atoms: _94  and  _96
REMARK   38  A    between atoms: _96  and  _97
REMARK   39  A    between atoms: _96  and  _99
REMARK   40  A    between atoms: _99  and  _100
REMARK   41  A    between atoms: _104  and  _105
REMARK   42  A    between atoms: _111  and  _112
REMARK   43  A    between atoms: _117  and  _119
REMARK   44  A    between atoms: _119  and  _120
REMARK   45  A    between atoms: _119  and  _122
REMARK   46  A    between atoms: _122  and  _123
REMARK   47  A    between atoms: _126  and  _128
REMARK   48  A    between atoms: _128  and  _129
REMARK   49  A    between atoms: _132  and  _133
REMARK   50  A    between atoms: _138  and  _140
REMARK   51  A    between atoms: _140  and  _141
REMARK   52  A    between atoms: _140  and  _143
REMARK   53  A    between atoms: _143  and  _144
REMARK   54  A    between atoms: _144  and  _145
REMARK   55  A    between atoms: _150  and  _152
REMARK   56  A    between atoms: _152  and  _153
REMARK   57  A    between atoms: _152  and  _155
REMARK   58  A    between atoms: _155  and  _156
REMARK   59  A    between atoms: _156  and  _157
REMARK   60  A    between atoms: _163  and  _164
REMARK   61  A    between atoms: _169  and  _171
REMARK   62  A    between atoms: _171  and  _172
REMARK   63  A    between atoms: _171  and  _174
REMARK   64  A    between atoms: _174  and  _175
REMARK   65  A    between atoms: _178  and  _180
REMARK   66  A    between atoms: _180  and  _181
REMARK   67  A    between atoms: _180  and  _183
REMARK   68  A    between atoms: _183  and  _184
REMARK   69  A    between atoms: _189  and  _190
REMARK   70  A    between atoms: _192  and  _194
REMARK   71  A    between atoms: _194  and  _195
REMARK   72  A    between atoms: _194  and  _197
REMARK   73  A    between atoms: _197  and  _198
REMARK   74  A    between atoms: _201  and  _203
REMARK   75  A    between atoms: _203  and  _204
REMARK   76  A    between atoms: _203  and  _206
REMARK   77  A    between atoms: _206  and  _207
REMARK   78  A    between atoms: _212  and  _214
REMARK   79  A    between atoms: _214  and  _215
REMARK   80  A    between atoms: _218  and  _220
REMARK   81  A    between atoms: _220  and  _221
REMARK   82  A    between atoms: _220  and  _223
REMARK   83  A    between atoms: _223  and  _224
REMARK   84  A    between atoms: _224  and  _225
REMARK   85  A    between atoms: _228  and  _230
REMARK   86  A    between atoms: _230  and  _231
REMARK   87  A    between atoms: _230  and  _233
REMARK   88  A    between atoms: _233  and  _234
REMARK   89  A    between atoms: _237  and  _239
REMARK   90  A    between atoms: _239  and  _240
REMARK   91  A    between atoms: _239  and  _242
REMARK   92  A    between atoms: _242  and  _243
REMARK   93  A    between atoms: _246  and  _248
REMARK   94  A    between atoms: _248  and  _249
REMARK   95  A    between atoms: _248  and  _251
REMARK   96  A    between atoms: _251  and  _252
REMARK   97  A    between atoms: _252  and  _253
REMARK   98  A    between atoms: _258  and  _260
REMARK   99  A    between atoms: _260  and  _261
REMARK  100  A    between atoms: _260  and  _263
REMARK  101  A    between atoms: _263  and  _264
REMARK  102  A    between atoms: _264  and  _265
REMARK  103  A    between atoms: _268  and  _270
REMARK  104  A    between atoms: _270  and  _271
REMARK  105  A    between atoms: _270  and  _273
REMARK  106  A    between atoms: _273  and  _274
REMARK  107  A    between atoms: _274  and  _275
REMARK  108  A    between atoms: _275  and  _276
REMARK  109  A    between atoms: _285  and  _287
REMARK  110  A    between atoms: _287  and  _288
REMARK  111  A    between atoms: _287  and  _290
REMARK  112  A    between atoms: _293  and  _295
REMARK  113  A    between atoms: _295  and  _296
REMARK  114  A    between atoms: _295  and  _298
REMARK  115  A    between atoms: _298  and  _299
REMARK  116  A    between atoms: _299  and  _300
REMARK  117  A    between atoms: _300  and  _301
REMARK  118  A    between atoms: _310  and  _312
REMARK  119  A    between atoms: _312  and  _313
REMARK  120  A    between atoms: _312  and  _315
REMARK  121  A    between atoms: _315  and  _316
REMARK  122  A    between atoms: _316  and  _317
REMARK  123  A    between atoms: _317  and  _318
REMARK  124  A    between atoms: _318  and  _319
REMARK  125  A    between atoms: _323  and  _325
REMARK  126  A    between atoms: _325  and  _326
REMARK  127  A    between atoms: _329  and  _331
REMARK  128  A    between atoms: _331  and  _332
REMARK  129  A    between atoms: _331  and  _334
REMARK  130  A    between atoms: _334  and  _335
REMARK  131  A    between atoms: _335  and  _336
REMARK  132  A    between atoms: _339  and  _341
REMARK  133  A    between atoms: _341  and  _342
REMARK  134  A    between atoms: _341  and  _344
REMARK  135  A    between atoms: _344  and  _345
REMARK  136  A    between atoms: _345  and  _346
REMARK  137  A    between atoms: _346  and  _347
REMARK  138  A    between atoms: _356  and  _358
REMARK  139  A    between atoms: _358  and  _359
REMARK  140  A    between atoms: _358  and  _361
REMARK  141  A    between atoms: _361  and  _362
REMARK  142  A    between atoms: _372  and  _374
REMARK  143  A    between atoms: _374  and  _375
REMARK  144  A    between atoms: _378  and  _379
REMARK  145  A    between atoms: _384  and  _386
REMARK  146  A    between atoms: _386  and  _387
REMARK  147  A    between atoms: _386  and  _389
REMARK  148  A    between atoms: _389  and  _390
REMARK  149  A    between atoms: _390  and  _391
REMARK  150  A    between atoms: _391  and  _392
REMARK  151  A    between atoms: _401  and  _403
REMARK  152  A    between atoms: _403  and  _404
REMARK  153  A    between atoms: _403  and  _406
REMARK  154  A    between atoms: _406  and  _407
REMARK  155  A    between atoms: _410  and  _412
REMARK  156  A    between atoms: _412  and  _413
REMARK  157  A    between atoms: _412  and  _415
REMARK  158  A    between atoms: _415  and  _416
REMARK  159  A    between atoms: _419  and  _421
REMARK  160  A    between atoms: _421  and  _422
REMARK  161  A    between atoms: _421  and  _424
REMARK  162  A    between atoms: _424  and  _425
REMARK  163  A    between atoms: _428  and  _430
REMARK  164  A    between atoms: _430  and  _431
REMARK  165  A    between atoms: _430  and  _433
REMARK  166  A    between atoms: _433  and  _434
REMARK  167  A    between atoms: _437  and  _439
REMARK  168  A    between atoms: _439  and  _440
REMARK  169  A    between atoms: _439  and  _442
REMARK  170  A    between atoms: _442  and  _443
REMARK  171  A    between atoms: _446  and  _448
REMARK  172  A    between atoms: _448  and  _449
REMARK  173  A    between atoms: _448  and  _451
REMARK  174  A    between atoms: _451  and  _452
REMARK  175  A    between atoms: _452  and  _453
REMARK  176  A    between atoms: _455  and  _457
REMARK  177  A    between atoms: _457  and  _458
REMARK  178  A    between atoms: _457  and  _460
REMARK  179  A    between atoms: _460  and  _461
REMARK  180  A    between atoms: _464  and  _466
REMARK  181  A    between atoms: _466  and  _467
REMARK  182  A    between atoms: _466  and  _469
REMARK  183  A    between atoms: _469  and  _470
REMARK  184  A    between atoms: _476  and  _478
REMARK  185  A    between atoms: _478  and  _479
REMARK  186  A    between atoms: _478  and  _481
REMARK  187  A    between atoms: _481  and  _482
REMARK  188  A    between atoms: _485  and  _487
REMARK  189  A    between atoms: _487  and  _488
REMARK  190  A    between atoms: _487  and  _490
REMARK  191  A    between atoms: _490  and  _491
REMARK  192  A    between atoms: _496  and  _498
REMARK  193  A    between atoms: _498  and  _499
REMARK  194  A    between atoms: _498  and  _501
REMARK  195  A    between atoms: _501  and  _502
REMARK  196  A    between atoms: _505  and  _507
REMARK  197  A    between atoms: _507  and  _508
REMARK  198  A    between atoms: _507  and  _510
REMARK  199  A    between atoms: _510  and  _511
REMARK  200  A    between atoms: _511  and  _512
REMARK  201  A    between atoms: _515  and  _517
REMARK  202  A    between atoms: _517  and  _518
REMARK  203  A    between atoms: _517  and  _520
REMARK  204  A    between atoms: _520  and  _521
REMARK  205  A    between atoms: _521  and  _522
REMARK  206  A    between atoms: _522  and  _523
REMARK  207  A    between atoms: _532  and  _534
REMARK  208  A    between atoms: _534  and  _535
REMARK  209  A    between atoms: _534  and  _537
REMARK  210  A    between atoms: _537  and  _538
REMARK  211  A    between atoms: _541  and  _543
REMARK  212  A    between atoms: _543  and  _544
REMARK  213  A    between atoms: _543  and  _546
REMARK  214  A    between atoms: _546  and  _547
REMARK  215  A    between atoms: _550  and  _552
REMARK  216  A    between atoms: _552  and  _553
REMARK  217  A    between atoms: _552  and  _555
REMARK  218  A    between atoms: _559  and  _560
REMARK  219  A    between atoms: _565  and  _567
REMARK  220  A    between atoms: _567  and  _568
REMARK  221  A    between atoms: _567  and  _570
REMARK  222  A    between atoms: _570  and  _571
REMARK  223  A    between atoms: _576  and  _578
REMARK  224  A    between atoms: _578  and  _579
REMARK  225  A    between atoms: _578  and  _581
REMARK  226  A    between atoms: _581  and  _582
REMARK  227  A    between atoms: _587  and  _588
REMARK  228  A    between atoms: _590  and  _592
REMARK  229  A    between atoms: _592  and  _593
REMARK  230  A    between atoms: _592  and  _595
REMARK  231  A    between atoms: _595  and  _596
REMARK  232  A    between atoms: _599  and  _601
REMARK  233  A    between atoms: _601  and  _602
REMARK  234  A    between atoms: _601  and  _604
REMARK  235  A    between atoms: _604  and  _605
REMARK  236  A    between atoms: _605  and  _606
REMARK  237  A    between atoms: _608  and  _610
REMARK  238  A    between atoms: _610  and  _611
REMARK  239  A    between atoms: _610  and  _613
REMARK  240  A    between atoms: _613  and  _614
REMARK  241  A    between atoms: _614  and  _615
REMARK  242  A    between atoms: _615  and  _616
REMARK  243  A    between atoms: _625  and  _627
REMARK  244  A    between atoms: _627  and  _628
REMARK  245  A    between atoms: _630  and  _632
REMARK  246  A    between atoms: _632  and  _633
REMARK  247  A    between atoms: _632  and  _635
REMARK  248  A    between atoms: _635  and  _636
REMARK  249  A    between atoms: _642  and  _644
REMARK  250  A    between atoms: _644  and  _645
REMARK  251  A    between atoms: _644  and  _647
REMARK  252  A    between atoms: _647  and  _648
REMARK  253  A    between atoms: _648  and  _649
REMARK  254  A    between atoms: _651  and  _653
REMARK  255  A    between atoms: _653  and  _654
REMARK  256  A    between atoms: _653  and  _656
REMARK  257  A    between atoms: _656  and  _657
REMARK                            x       y       z     vdW  Elec       q    Type
REMARK                         _______ _______ _______ _____ _____    ______ ____
ROOT
ATOM      1  CA  GLU A   1       9.495  10.621  18.480  0.00  0.00    +0.134 C 
ENDROOT
BRANCH   1   2
ATOM      2  N   GLU A   1       8.929   9.523  17.702  0.00  0.00    -0.239 NA
ATOM      3  H   GLU A   1       7.899   9.442  17.585  0.00  0.00    +0.142 HD
ENDBRANCH   1   2
BRANCH   1   4
ATOM      4  C   GLU A   1      10.483  10.118  19.532  0.00  0.00    +0.224 C 
ATOM      5  O   GLU A   1      11.644  10.536  19.525  0.00  0.00    -0.287 OA
ENDBRANCH   1   4
BRANCH   1   6
ATOM      6  CB  GLU A   1       8.389  11.428  19.158  0.00  0.00    +0.037 C 
BRANCH   6   7
ATOM      7  CG  GLU A   1       7.589  12.285  18.168  0.00  0.00    +0.116 C 
BRANCH   7   8
ATOM      8  CD  GLU A   1       6.561  13.105  18.935  0.00  0.00    +0.365 C 
ATOM      9  OE2 GLU A   1       6.291  12.723  20.092  0.00  0.00    -0.246 OA
ATOM     10  OE1 GLU A   1       6.050  14.102  18.394  0.00  0.00    -0.246 OA
ENDBRANCH   7   8
ENDBRANCH   6   7
ENDBRANCH   1   6
TORSDOF 5
REMARK  Name = ../refined-set-2016/1ex8/1ex8_pocket.pdb
REMARK  257 active torsions:
REMARK  status: ('A' for Active; 'I' for Inactive)
REMARK    1  A    between atoms: _1  and  _3
REMARK    2  A    between atoms: _3  and  _4
REMARK    3  A    between atoms: _3  and  _6
REMARK    4  A    between atoms: _6  and  _7
REMARK    5  A    between atoms: _12  and  _13
REMARK    6  A    between atoms: _15  and  _17
REMARK    7  A    between atoms: _17  and  _18
REMARK    8  A    between atoms: _17  and  _20
REMARK    9  A    between atoms: _20  and  _21
REMARK   10  A    between atoms: _24  and  _26
REMARK   11  A    between atoms: _26  and  _27
REMARK   12  A    between atoms: _30  and  _32
REMARK   13  A    between atoms: _32  and  _33
REMARK   14  A    between atoms: _32  and  _35
REMARK   15  A    between atoms: _35  and  _36
REMARK   16  A    between atoms: _39  and  _41
REMARK   17  A    between atoms: _41  and  _42
REMARK   18  A    between atoms: _44  and  _46
REMARK   19  A    between atoms: _46  and  _47
REMARK   20  A    between atoms: _46  and  _49
REMARK   21  A    between atoms: _49  and  _50
REMARK   22  A    between atoms: _52  and  _54
REMARK   23  A    between atoms: _54  and  _55
REMARK   24  A    between atoms: _54  and  _57
REMARK   25  A    between atoms: _57  and  _58
REMARK   26  A    between atoms: _63  and  _65
REMARK   27  A    between atoms: _65  and  _66
REMARK   28  A    between atoms: _65  and  _68
REMARK   29  A    between atoms: _68  and  _69
REMARK   30  A    between atoms: _74  and  _75
REMARK   31  A    between atoms: _77  and  _79
REMARK   32  A    between atoms: _79  and  _80
REMARK   33  A    between atoms: _79  and  _82
REMARK   34  A    between atoms: _82  and  _83
REMARK   35  A    between atoms: _83  and  _84
REMARK   36  A    between atoms: _84  and  _85
REMARK   37  A    between atoms: _94  and  _96
REMARK   38  A    between atoms: _96  and  _97
REMARK   39  A    between atoms: _96  and  _99
REMARK   40  A    between atoms: _99  and  _100
REMARK   41  A    between atoms: _104  and  _105
REMARK   42  A    between atoms: _111  and  _112
REMARK   43  A    between atoms: _117  and  _119
REMARK   44  A    between atoms: _119  and  _120
REMARK   45  A    between atoms: _119  and  _122
REMARK   46  A    between atoms: _122  and  _123
REMARK   47  A    between atoms: _126  and  _128
REMARK   48  A    between atoms: _128  and  _129
REMARK   49  A    between atoms: _132  and  _133
REMARK   50  A    between atoms: _138  and  _140
REMARK   51  A    between atoms: _140  and  _141
REMARK   52  A    between atoms: _140  and  _143
REMARK   53  A    between atoms: _143  and  _144
REMARK   54  A    between atoms: _144  and  _145
REMARK   55  A    between atoms: _150  and  _152
REMARK   56  A    between atoms: _152  and  _153
REMARK   57  A    between atoms: _152  and  _155
REMARK   58  A    between atoms: _155  and  _156
REMARK   59  A    between atoms: _156  and  _157
REMARK   60  A    between atoms: _163  and  _164
REMARK   61  A    between atoms: _169  and  _171
REMARK   62  A    between atoms: _171  and  _172
REMARK   63  A    between atoms: _171  and  _174
REMARK   64  A    between atoms: _174  and  _175
REMARK   65  A    between atoms: _178  and  _180
REMARK   66  A    between atoms: _180  and  _181
REMARK   67  A    between atoms: _180  and  _183
REMARK   68  A    between atoms: _183  and  _184
REMARK   69  A    between atoms: _189  and  _190
REMARK   70  A    between atoms: _192  and  _194
REMARK   71  A    between atoms: _194  and  _195
REMARK   72  A    between atoms: _194  and  _197
REMARK   73  A    between atoms: _197  and  _198
REMARK   74  A    between atoms: _201  and  _203
REMARK   75  A    between atoms: _203  and  _204
REMARK   76  A    between atoms: _203  and  _206
REMARK   77  A    between atoms: _206  and  _207
REMARK   78  A    between atoms: _212  and  _214
REMARK   79  A    between atoms: _214  and  _215
REMARK   80  A    between atoms: _218  and  _220
REMARK   81  A    between atoms: _220  and  _221
REMARK   82  A    between atoms: _220  and  _223
REMARK   83  A    between atoms: _223  and  _224
REMARK   84  A    between atoms: _224  and  _225
REMARK   85  A    between atoms: _228  and  _230
REMARK   86  A    between atoms: _230  and  _231
REMARK   87  A    between atoms: _230  and  _233
REMARK   88  A    between atoms: _233  and  _234
REMARK   89  A    between atoms: _237  and  _239
REMARK   90  A    between atoms: _239  and  _240
REMARK   91  A    between atoms: _239  and  _242
REMARK   92  A    between atoms: _242  and  _243
REMARK   93  A    between atoms: _246  and  _248
REMARK   94  A    between atoms: _248  and  _249
REMARK   95  A    between atoms: _248  and  _251
REMARK   96  A    between atoms: _251  and  _252
REMARK   97  A    between atoms: _252  and  _253
REMARK   98  A    between atoms: _258  and  _260
REMARK   99  A    between atoms: _260  and  _261
REMARK  100  A    between atoms: _260  and  _263
REMARK  101  A    between atoms: _263  and  _264
REMARK  102  A    between atoms: _264  and  _265
REMARK  103  A    between atoms: _268  and  _270
REMARK  104  A    between atoms: _270  and  _271
REMARK  105  A    between atoms: _270  and  _273
REMARK  106  A    between atoms: _273  and  _274
REMARK  107  A    between atoms: _274  and  _275
REMARK  108  A    between atoms: _275  and  _276
REMARK  109  A    between atoms: _285  and  _287
REMARK  110  A    between atoms: _287  and  _288
REMARK  111  A    between atoms: _287  and  _290
REMARK  112  A    between atoms: _293  and  _295
REMARK  113  A    between atoms: _295  and  _296
REMARK  114  A    between atoms: _295  and  _298
REMARK  115  A    between atoms: _298  and  _299
REMARK  116  A    between atoms: _299  and  _300
REMARK  117  A    between atoms: _300  and  _301
REMARK  118  A    between atoms: _310  and  _312
REMARK  119  A    between atoms: _312  and  _313
REMARK  120  A    between atoms: _312  and  _315
REMARK  121  A    between atoms: _315  and  _316
REMARK  122  A    between atoms: _316  and  _317
REMARK  123  A    between atoms: _317  and  _318
REMARK  124  A    between atoms: _318  and  _319
REMARK  125  A    between atoms: _323  and  _325
REMARK  126  A    between atoms: _325  and  _326
REMARK  127  A    between atoms: _329  and  _331
REMARK  128  A    between atoms: _331  and  _332
REMARK  129  A    between atoms: _331  and  _334
REMARK  130  A    between atoms: _334  and  _335
REMARK  131  A    between atoms: _335  and  _336
REMARK  132  A    between atoms: _339  and  _341
REMARK  133  A    between atoms: _341  and  _342
REMARK  134  A    between atoms: _341  and  _344
REMARK  135  A    between atoms: _344  and  _345
REMARK  136  A    between atoms: _345  and  _346
REMARK  137  A    between atoms: _346  and  _347
REMARK  138  A    between atoms: _356  and  _358
REMARK  139  A    between atoms: _358  and  _359
REMARK  140  A    between atoms: _358  and  _361
REMARK  141  A    between atoms: _361  and  _362
REMARK  142  A    between atoms: _372  and  _374
REMARK  143  A    between atoms: _374  and  _375
REMARK  144  A    between atoms: _378  and  _379
REMARK  145  A    between atoms: _384  and  _386
REMARK  146  A    between atoms: _386  and  _387
REMARK  147  A    between atoms: _386  and  _389
REMARK  148  A    between atoms: _389  and  _390
REMARK  149  A    between atoms: _390  and  _391
REMARK  150  A    between atoms: _391  and  _392
REMARK  151  A    between atoms: _401  and  _403
REMARK  152  A    between atoms: _403  and  _404
REMARK  153  A    between atoms: _403  and  _406
REMARK  154  A    between atoms: _406  and  _407
REMARK  155  A    between atoms: _410  and  _412
REMARK  156  A    between atoms: _412  and  _413
REMARK  157  A    between atoms: _412  and  _415
REMARK  158  A    between atoms: _415  and  _416
REMARK  159  A    between atoms: _419  and  _421
REMARK  160  A    between atoms: _421  and  _422
REMARK  161  A    between atoms: _421  and  _424
REMARK  162  A    between atoms: _424  and  _425
REMARK  163  A    between atoms: _428  and  _430
REMARK  164  A    between atoms: _430  and  _431
REMARK  165  A    between atoms: _430  and  _433
REMARK  166  A    between atoms: _433  and  _434
REMARK  167  A    between atoms: _437  and  _439
REMARK  168  A    between atoms: _439  and  _440
REMARK  169  A    between atoms: _439  and  _442
REMARK  170  A    between atoms: _442  and  _443
REMARK  171  A    between atoms: _446  and  _448
REMARK  172  A    between atoms: _448  and  _449
REMARK  173  A    between atoms: _448  and  _451
REMARK  174  A    between atoms: _451  and  _452
REMARK  175  A    between atoms: _452  and  _453
REMARK  176  A    between atoms: _455  and  _457
REMARK  177  A    between atoms: _457  and  _458
REMARK  178  A    between atoms: _457  and  _460
REMARK  179  A    between atoms: _460  and  _461
REMARK  180  A    between atoms: _464  and  _466
REMARK  181  A    between atoms: _466  and  _467
REMARK  182  A    between atoms: _466  and  _469
REMARK  183  A    between atoms: _469  and  _470
REMARK  184  A    between atoms: _476  and  _478
REMARK  185  A    between atoms: _478  and  _479
REMARK  186  A    between atoms: _478  and  _481
REMARK  187  A    between atoms: _481  and  _482
REMARK  188  A    between atoms: _485  and  _487
REMARK  189  A    between atoms: _487  and  _488
REMARK  190  A    between atoms: _487  and  _490
REMARK  191  A    between atoms: _490  and  _491
REMARK  192  A    between atoms: _496  and  _498
REMARK  193  A    between atoms: _498  and  _499
REMARK  194  A    between atoms: _498  and  _501
REMARK  195  A    between atoms: _501  and  _502
REMARK  196  A    between atoms: _505  and  _507
REMARK  197  A    between atoms: _507  and  _508
REMARK  198  A    between atoms: _507  and  _510
REMARK  199  A    between atoms: _510  and  _511
REMARK  200  A    between atoms: _511  and  _512
REMARK  201  A    between atoms: _515  and  _517
REMARK  202  A    between atoms: _517  and  _518
REMARK  203  A    between atoms: _517  and  _520
REMARK  204  A    between atoms: _520  and  _521
REMARK  205  A    between atoms: _521  and  _522
REMARK  206  A    between atoms: _522  and  _523
REMARK  207  A    between atoms: _532  and  _534
REMARK  208  A    between atoms: _534  and  _535
REMARK  209  A    between atoms: _534  and  _537
REMARK  210  A    between atoms: _537  and  _538
REMARK  211  A    between atoms: _541  and  _543
REMARK  212  A    between atoms: _543  and  _544
REMARK  213  A    between atoms: _543  and  _546
REMARK  214  A    between atoms: _546  and  _547
REMARK  215  A    between atoms: _550  and  _552
REMARK  216  A    between atoms: _552  and  _553
REMARK  217  A    between atoms: _552  and  _555
REMARK  218  A    between atoms: _559  and  _560
REMARK  219  A    between atoms: _565  and  _567
REMARK  220  A    between atoms: _567  and  _568
REMARK  221  A    between atoms: _567  and  _570
REMARK  222  A    between atoms: _570  and  _571
REMARK  223  A    between atoms: _576  and  _578
REMARK  224  A    between atoms: _578  and  _579
REMARK  225  A    between atoms: _578  and  _581
REMARK  226  A    between atoms: _581  and  _582
REMARK  227  A    between atoms: _587  and  _588
REMARK  228  A    between atoms: _590  and  _592
REMARK  229  A    between atoms: _592  and  _593
REMARK  230  A    between atoms: _592  and  _595
REMARK  231  A    between atoms: _595  and  _596
REMARK  232  A    between atoms: _599  and  _601
REMARK  233  A    between atoms: _601  and  _602
REMARK  234  A    between atoms: _601  and  _604
REMARK  235  A    between atoms: _604  and  _605
REMARK  236  A    between atoms: _605  and  _606
REMARK  237  A    between atoms: _608  and  _610
REMARK  238  A    between atoms: _610  and  _611
REMARK  239  A    between atoms: _610  and  _613
REMARK  240  A    between atoms: _613  and  _614
REMARK  241  A    between atoms: _614  and  _615
REMARK  242  A    between atoms: _615  and  _616
REMARK  243  A    between atoms: _625  and  _627
REMARK  244  A    between atoms: _627  and  _628
REMARK  245  A    between atoms: _630  and  _632
REMARK  246  A    between atoms: _632  and  _633
REMARK  247  A    between atoms: _632  and  _635
REMARK  248  A    between atoms: _635  and  _636
REMARK  249  A    between atoms: _642  and  _644
REMARK  250  A    between atoms: _644  and  _645
REMARK  251  A    between atoms: _644  and  _647
REMARK  252  A    between atoms: _647  and  _648
REMARK  253  A    between atoms: _648  and  _649
REMARK  254  A    between atoms: _651  and  _653
REMARK  255  A    between atoms: _653  and  _654
REMARK  256  A    between atoms: _653  and  _656
REMARK  257  A    between atoms: _656  and  _657
REMARK                            x       y       z     vdW  Elec       q    Type
REMARK                         _______ _______ _______ _____ _____    ______ ____
ROOT
ATOM      1  CA  GLU A   6       7.834  24.484  29.726  0.00  0.00    +0.149 C 
ENDROOT
BRANCH   1   3
ATOM      2  C   ALA A   5       7.654  22.141  30.460  0.00  0.00    +0.241 C 
ATOM      3  N   GLU A   6       8.277  23.320  30.474  0.00  0.00    -0.297 N 
ATOM      4  H   GLU A   6       9.133  23.412  31.057  0.00  0.00    +0.150 HD
ATOM      5  O   ALA A   5       6.629  21.907  29.811  0.00  0.00    -0.273 OA
BRANCH   2   6
ATOM      6  CA  ALA A   5       8.284  21.056  31.329  0.00  0.00    +0.149 C 
ATOM      7  CB  ALA A   5       8.900  21.624  32.590  0.00  0.00    +0.031 C 
BRANCH   6   9
ATOM      8  C   LYS A   4       8.995  19.722  29.417  0.00  0.00    +0.241 C 
ATOM      9  N   ALA A   5       9.292  20.342  30.539  0.00  0.00    -0.297 N 
ATOM     10  H   ALA A   5      10.275  20.325  30.877  0.00  0.00    +0.150 HD
ATOM     11  O   LYS A   4       7.858  19.645  28.929  0.00  0.00    -0.273 OA
BRANCH   8  12
ATOM     12  CA  LYS A   4      10.182  19.077  28.726  0.00  0.00    +0.149 C 
BRANCH  12  15
ATOM     13  C   ARG A   3      10.109  16.682  28.499  0.00  0.00    +0.241 C 
ATOM     14  O   ARG A   3      10.834  16.417  29.470  0.00  0.00    -0.273 OA
ATOM     15  N   LYS A   4       9.753  17.856  28.088  0.00  0.00    -0.297 N 
ATOM     16  H   LYS A   4       9.128  17.923  27.259  0.00  0.00    +0.150 HD
BRANCH  13  17
ATOM     17  CA  ARG A   3       9.533  15.585  27.648  0.00  0.00    +0.149 C 
BRANCH  17  19
ATOM     18  C   VAL A   2      11.333  15.536  25.972  0.00  0.00    +0.241 C 
ATOM     19  N   ARG A   3      10.617  14.914  26.913  0.00  0.00    -0.297 N 
ATOM     20  H   ARG A   3      10.833  13.921  27.134  0.00  0.00    +0.150 HD
ATOM     21  O   VAL A   2      11.086  16.664  25.528  0.00  0.00    -0.273 OA
BRANCH  18  22
ATOM     22  CA  VAL A   2      12.550  14.797  25.430  0.00  0.00    +0.148 C 
BRANCH  22  24
ATOM     23  C   ARG A   1      12.325  13.680  23.272  0.00  0.00    +0.238 C 
ATOM     24  N   VAL A   2      12.639  14.756  23.978  0.00  0.00    -0.297 N 
ATOM     25  H   VAL A   2      12.962  15.606  23.474  0.00  0.00    +0.150 HD
ATOM     26  O   ARG A   1      11.791  12.695  23.772  0.00  0.00    -0.274 OA
BRANCH  23  27
ATOM     27  CA  ARG A   1      12.652  13.722  21.783  0.00  0.00    +0.145 C 
BRANCH  27  28
ATOM     28  N   ARG A   1      13.417  12.542  21.378  0.00  0.00    -0.238 NA
ATOM     29  H   ARG A   1      12.966  11.817  20.784  0.00  0.00    +0.142 HD
ENDBRANCH  27  28
BRANCH  27  30
ATOM     30  CB  ARG A   1      11.347  13.845  20.997  0.00  0.00    +0.030 C 
BRANCH  30  31
ATOM     31  CG  ARG A   1      10.342  14.798  21.640  0.00  0.00    +0.045 C 
BRANCH  31  32
ATOM     32  CD  ARG A   1       8.976  14.619  21.013  0.00  0.00    +0.174 C 
BRANCH  32  33
ATOM     33  NE  ARG A   1       8.258  15.874  20.795  0.00  0.00    -0.265 N 
ATOM     34  CZ  ARG A   1       7.303  16.280  21.627  0.00  0.00    +0.342 C 
ATOM     35  NH2 ARG A   1       6.998  15.529  22.677  0.00  0.00    -0.292 N 
ATOM     36 HH21 ARG A   1       6.253  15.834  23.336  0.00  0.00    +0.255 HD
ATOM     37 HH22 ARG A   1       7.503  14.635  22.841  0.00  0.00    +0.255 HD
ATOM     38  NH1 ARG A   1       6.658  17.415  21.417  0.00  0.00    -0.292 N 
ATOM     39 HH11 ARG A   1       5.914  17.720  22.076  0.00  0.00    +0.255 HD
ATOM     40 HH12 ARG A   1       6.895  18.003  20.593  0.00  0.00    +0.255 HD
ATOM     41  HE  ARG A   1       8.499  16.462  19.972  0.00  0.00    +0.259 HD
ENDBRANCH  32  33
ENDBRANCH  31  32
ENDBRANCH  30  31
ENDBRANCH  27  30
ENDBRANCH  23  27
ENDBRANCH  22  24
BRANCH  22  42
ATOM     42  CB  VAL A   2      13.843  15.473  25.950  0.00  0.00    +0.027 C 
ATOM     43  CG2 VAL A   2      13.667  15.998  27.359  0.00  0.00    +0.002 C 
ATOM     44  CG1 VAL A   2      14.995  14.482  25.871  0.00  0.00    +0.002 C 
ENDBRANCH  22  42
ENDBRANCH  18  22
ENDBRANCH  17  19
BRANCH  17  45
ATOM     45  CB  ARG A   3       8.696  14.625  28.493  0.00  0.00    +0.033 C 
BRANCH  45  46
ATOM     46  CG  ARG A   3       7.174  14.747  28.324  0.00  0.00    +0.045 C 
BRANCH  46  47
ATOM     47  CD  ARG A   3       6.667  16.175  28.497  0.00  0.00    +0.174 C 
BRANCH  47  48
ATOM     48  NE  ARG A   3       5.200  16.167  28.523  0.00  0.00    -0.265 N 
ATOM     49  HE  ARG A   3       4.741  15.450  29.121  0.00  0.00    +0.259 HD
ATOM     50  CZ  ARG A   3       4.391  17.008  27.839  0.00  0.00    +0.342 C 
ATOM     51  NH2 ARG A   3       3.049  16.892  27.891  0.00  0.00    -0.292 N 
ATOM     52 HH21 ARG A   3       2.614  16.143  28.466  0.00  0.00    +0.255 HD
ATOM     53 HH22 ARG A   3       2.449  17.551  27.356  0.00  0.00    +0.255 HD
ATOM     54  NH1 ARG A   3       4.961  17.985  27.146  0.00  0.00    -0.292 N 
ATOM     55 HH11 ARG A   3       5.996  18.084  27.142  0.00  0.00    +0.255 HD
ATOM     56 HH12 ARG A   3       4.373  18.652  26.607  0.00  0.00    +0.255 HD
ENDBRANCH  47  48
ENDBRANCH  46  47
ENDBRANCH  45  46
ENDBRANCH  17  45
ENDBRANCH  13  17
ENDBRANCH  12  15
BRANCH  12  57
ATOM     57  CB  LYS A   4      10.786  20.046  27.707  0.00  0.00    +0.029 C 
BRANCH  57  58
ATOM     58  CG  LYS A   4      12.278  19.861  27.473  0.00  0.00    +0.000 C 
BRANCH  58  59
ATOM     59  CD  LYS A   4      12.622  19.936  25.992  0.00  0.00    -0.024 C 
BRANCH  59  60
ATOM     60  CE  LYS A   4      12.560  21.359  25.472  0.00  0.00    -0.086 C 
BRANCH  60  61
ATOM     61  NZ  LYS A   4      11.668  21.383  24.247  0.00  0.00    +0.380 N 
ATOM     62  HZ1 LYS A   4      10.715  21.057  24.507  0.00  0.00    -0.089 HD
ATOM     63  HZ2 LYS A   4      11.615  22.354  23.877  0.00  0.00    -0.089 HD
ATOM     64  HZ3 LYS A   4      12.064  20.755  23.519  0.00  0.00    -0.089 HD
ENDBRANCH  60  61
ENDBRANCH  59  60
ENDBRANCH  58  59
ENDBRANCH  57  58
ENDBRANCH  12  57
ENDBRANCH   8  12
ENDBRANCH   6   9
ENDBRANCH   2   6
ENDBRANCH   1   3
BRANCH   1  65
ATOM     65  C   GLU A   6       7.728  24.167  28.234  0.00  0.00    +0.241 C 
ATOM     66  O   GLU A   6       8.585  23.492  27.663  0.00  0.00    -0.273 OA
ATOM     67  N   ARG A   7       6.662  24.669  27.620  0.00  0.00    -0.297 N 
ATOM     68  H   ARG A   7       5.957  25.200  28.170  0.00  0.00    +0.150 HD
BRANCH  67  69
ATOM     69  CA  ARG A   7       6.466  24.487  26.193  0.00  0.00    +0.149 C 
BRANCH  69  70
ATOM     70  C   ARG A   7       7.411  25.412  25.393  0.00  0.00    +0.241 C 
ATOM     71  O   ARG A   7       8.077  26.260  26.010  0.00  0.00    -0.273 OA
ATOM     72  N   TRP A   8       7.430  25.084  24.115  0.00  0.00    -0.297 N 
ATOM     73  H   TRP A   8       6.900  24.228  23.854  0.00  0.00    +0.150 HD
BRANCH  72  74
ATOM     74  CA  TRP A   8       8.114  25.788  23.012  0.00  0.00    +0.153 C 
BRANCH  74  75
ATOM     75  C   TRP A   8       9.651  25.848  23.128  0.00  0.00    +0.241 C 
ATOM     76  N   GLY A   9      10.268  25.114  24.045  0.00  0.00    -0.295 N 
ATOM     77  H   GLY A   9       9.704  24.635  24.775  0.00  0.00    +0.150 HD
ATOM     78  O   TRP A   8      10.238  26.575  22.322  0.00  0.00    -0.273 OA
BRANCH  76  79
ATOM     79  CA  GLY A   9      11.723  24.963  24.053  0.00  0.00    +0.176 C 
BRANCH  79  80
ATOM     80  C   GLY A   9      12.126  24.026  22.923  0.00  0.00    +0.246 C 
ATOM     81  N   PRO A  10      13.395  23.813  22.617  0.00  0.00    -0.272 N 
ATOM     82  CD  PRO A  10      14.584  24.228  23.384  0.00  0.00    +0.094 C 
ATOM     83  CG  PRO A  10      15.726  23.605  22.623  0.00  0.00    +0.024 C 
ATOM     84  CB  PRO A  10      15.243  23.474  21.212  0.00  0.00    +0.031 C 
ATOM     85  CA  PRO A  10      13.767  23.074  21.398  0.00  0.00    +0.152 C 
ATOM     86  O   GLY A   9      11.227  23.453  22.296  0.00  0.00    -0.273 OA
BRANCH  85  87
ATOM     87  C   PRO A  10      13.666  21.564  21.556  0.00  0.00    +0.241 C 
ATOM     88  O   PRO A  10      13.580  21.057  22.672  0.00  0.00    -0.273 OA
ATOM     89  N   ARG A  11      13.673  20.806  20.457  0.00  0.00    -0.298 N 
ATOM     90  H   ARG A  11      13.803  21.222  19.513  0.00  0.00    +0.150 HD
BRANCH  89  91
ATOM     91  CA  ARG A  11      13.489  19.354  20.638  0.00  0.00    +0.137 C 
BRANCH  91  92
ATOM     92  C   ARG A  11      13.896  18.596  19.395  0.00  0.00    +0.227 C 
ATOM     93  O   ARG A  11      13.857  19.120  18.277  0.00  0.00    -0.286 OA
ENDBRANCH  91  92
BRANCH  91  94
ATOM     94  CB  ARG A  11      12.036  19.132  21.059  0.00  0.00    +0.031 C 
BRANCH  94  95
ATOM     95  CG  ARG A  11      11.015  19.052  19.956  0.00  0.00    +0.045 C 
BRANCH  95  96
ATOM     96  CD  ARG A  11      10.526  20.402  19.479  0.00  0.00    +0.174 C 
BRANCH  96  97
ATOM     97  NE  ARG A  11      10.028  21.268  20.531  0.00  0.00    -0.265 N 
ATOM     98  CZ  ARG A  11       8.839  21.318  21.105  0.00  0.00    +0.342 C 
ATOM     99  NH2 ARG A  11       8.615  22.219  22.063  0.00  0.00    -0.292 N 
ATOM    100 HH21 ARG A  11       7.683  22.269  22.523  0.00  0.00    +0.255 HD
ATOM    101 HH22 ARG A  11       9.372  22.872  22.350  0.00  0.00    +0.255 HD
ATOM    102  NH1 ARG A  11       7.864  20.488  20.748  0.00  0.00    -0.292 N 
ATOM    103 HH11 ARG A  11       6.936  20.545  21.214  0.00  0.00    +0.255 HD
ATOM    104 HH12 ARG A  11       8.029  19.781  20.003  0.00  0.00    +0.255 HD
ATOM    105  HE  ARG A  11      10.717  21.960  20.891  0.00  0.00    +0.259 HD
ENDBRANCH  96  97
ENDBRANCH  95  96
ENDBRANCH  94  95
ENDBRANCH  91  94
ENDBRANCH  89  91
ENDBRANCH  85  87
ENDBRANCH  79  80
ENDBRANCH  76  79
ENDBRANCH  74  75
BRANCH  74 106
ATOM    106  CB  TRP A   8       7.532  27.195  22.835  0.00  0.00    +0.057 C 
BRANCH 106 107
ATOM    107  CG  TRP A   8       6.053  27.150  22.575  0.00  0.00    -0.002 A 
ATOM    108  CD2 TRP A   8       5.141  28.256  22.602  0.00  0.00    +0.013 A 
ATOM    109  CE3 TRP A   8       5.283  29.627  22.851  0.00  0.00    +0.001 A 
ATOM    110  CZ3 TRP A   8       4.163  30.437  22.790  0.00  0.00    +0.000 A 
ATOM    111  CH2 TRP A   8       2.902  29.905  22.488  0.00  0.00    +0.001 A 
ATOM    112  CZ2 TRP A   8       2.732  28.565  22.243  0.00  0.00    +0.017 A 
ATOM    113  CE2 TRP A   8       3.861  27.745  22.302  0.00  0.00    +0.056 A 
ATOM    114  NE1 TRP A   8       3.986  26.386  22.104  0.00  0.00    -0.352 N 
ATOM    115  HE1 TRP A   8       3.214  25.730  21.869  0.00  0.00    +0.166 HD
ATOM    116  CD1 TRP A   8       5.305  26.048  22.271  0.00  0.00    +0.068 A 
ENDBRANCH 106 107
ENDBRANCH  74 106
ENDBRANCH  72  74
ENDBRANCH  69  70
BRANCH  69 117
ATOM    117  CB  ARG A   7       5.038  24.807  25.759  0.00  0.00    +0.033 C 
BRANCH 117 118
ATOM    118  CG  ARG A   7       3.955  23.789  26.063  0.00  0.00    +0.045 C 
BRANCH 118 119
ATOM    119  CD  ARG A   7       2.642  24.485  26.387  0.00  0.00    +0.174 C 
BRANCH 119 120
ATOM    120  NE  ARG A   7       1.551  23.547  26.623  0.00  0.00    -0.265 N 
ATOM    121  CZ  ARG A   7       0.863  23.468  27.756  0.00  0.00    +0.342 C 
ATOM    122  NH2 ARG A   7       1.136  24.266  28.781  0.00  0.00    -0.292 N 
ATOM    123 HH21 ARG A   7       0.586  24.189  29.660  0.00  0.00    +0.255 HD
ATOM    124 HH22 ARG A   7       1.900  24.968  28.705  0.00  0.00    +0.255 HD
ATOM    125  NH1 ARG A   7      -0.117  22.581  27.875  0.00  0.00    -0.292 N 
ATOM    126 HH11 ARG A   7      -0.657  22.518  28.762  0.00  0.00    +0.255 HD
ATOM    127 HH12 ARG A   7      -0.345  21.949  27.081  0.00  0.00    +0.255 HD
ATOM    128  HE  ARG A   7       1.295  22.897  25.853  0.00  0.00    +0.259 HD
ENDBRANCH 119 120
ENDBRANCH 118 119
ENDBRANCH 117 118
ENDBRANCH  69 117
ENDBRANCH  67  69
ENDBRANCH   1  65
BRANCH   1 129
ATOM    129  CB  GLU A   6       8.770  25.690  29.890  0.00  0.00    +0.041 C 
BRANCH 129 130
ATOM    130  CG  GLU A   6       9.427  26.117  28.585  0.00  0.00    +0.116 C 
BRANCH 130 131
ATOM    131  CD  GLU A   6       9.657  27.599  28.396  0.00  0.00    +0.365 C 
ATOM    132  OE2 GLU A   6       9.284  28.410  29.271  0.00  0.00    -0.246 OA
ATOM    133  OE1 GLU A   6      10.228  27.991  27.347  0.00  0.00    -0.246 OA
ENDBRANCH 130 131
ENDBRANCH 129 130
ENDBRANCH   1 129
TORSDOF 48
REMARK  Name = ../refined-set-2016/1ex8/1ex8_pocket.pdb
REMARK  257 active torsions:
REMARK  status: ('A' for Active; 'I' for Inactive)
REMARK    1  A    between atoms: _1  and  _3
REMARK    2  A    between atoms: _3  and  _4
REMARK    3  A    between atoms: _3  and  _6
REMARK    4  A    between atoms: _6  and  _7
REMARK    5  A    between atoms: _12  and  _13
REMARK    6  A    between atoms: _15  and  _17
REMARK    7  A    between atoms: _17  and  _18
REMARK    8  A    between atoms: _17  and  _20
REMARK    9  A    between atoms: _20  and  _21
REMARK   10  A    between atoms: _24  and  _26
REMARK   11  A    between atoms: _26  and  _27
REMARK   12  A    between atoms: _30  and  _32
REMARK   13  A    between atoms: _32  and  _33
REMARK   14  A    between atoms: _32  and  _35
REMARK   15  A    between atoms: _35  and  _36
REMARK   16  A    between atoms: _39  and  _41
REMARK   17  A    between atoms: _41  and  _42
REMARK   18  A    between atoms: _44  and  _46
REMARK   19  A    between atoms: _46  and  _47
REMARK   20  A    between atoms: _46  and  _49
REMARK   21  A    between atoms: _49  and  _50
REMARK   22  A    between atoms: _52  and  _54
REMARK   23  A    between atoms: _54  and  _55
REMARK   24  A    between atoms: _54  and  _57
REMARK   25  A    between atoms: _57  and  _58
REMARK   26  A    between atoms: _63  and  _65
REMARK   27  A    between atoms: _65  and  _66
REMARK   28  A    between atoms: _65  and  _68
REMARK   29  A    between atoms: _68  and  _69
REMARK   30  A    between atoms: _74  and  _75
REMARK   31  A    between atoms: _77  and  _79
REMARK   32  A    between atoms: _79  and  _80
REMARK   33  A    between atoms: _79  and  _82
REMARK   34  A    between atoms: _82  and  _83
REMARK   35  A    between atoms: _83  and  _84
REMARK   36  A    between atoms: _84  and  _85
REMARK   37  A    between atoms: _94  and  _96
REMARK   38  A    between atoms: _96  and  _97
REMARK   39  A    between atoms: _96  and  _99
REMARK   40  A    between atoms: _99  and  _100
REMARK   41  A    between atoms: _104  and  _105
REMARK   42  A    between atoms: _111  and  _112
REMARK   43  A    between atoms: _117  and  _119
REMARK   44  A    between atoms: _119  and  _120
REMARK   45  A    between atoms: _119  and  _122
REMARK   46  A    between atoms: _122  and  _123
REMARK   47  A    between atoms: _126  and  _128
REMARK   48  A    between atoms: _128  and  _129
REMARK   49  A    between atoms: _132  and  _133
REMARK   50  A    between atoms: _138  and  _140
REMARK   51  A    between atoms: _140  and  _141
REMARK   52  A    between atoms: _140  and  _143
REMARK   53  A    between atoms: _143  and  _144
REMARK   54  A    between atoms: _144  and  _145
REMARK   55  A    between atoms: _150  and  _152
REMARK   56  A    between atoms: _152  and  _153
REMARK   57  A    between atoms: _152  and  _155
REMARK   58  A    between atoms: _155  and  _156
REMARK   59  A    between atoms: _156  and  _157
REMARK   60  A    between atoms: _163  and  _164
REMARK   61  A    between atoms: _169  and  _171
REMARK   62  A    between atoms: _171  and  _172
REMARK   63  A    between atoms: _171  and  _174
REMARK   64  A    between atoms: _174  and  _175
REMARK   65  A    between atoms: _178  and  _180
REMARK   66  A    between atoms: _180  and  _181
REMARK   67  A    between atoms: _180  and  _183
REMARK   68  A    between atoms: _183  and  _184
REMARK   69  A    between atoms: _189  and  _190
REMARK   70  A    between atoms: _192  and  _194
REMARK   71  A    between atoms: _194  and  _195
REMARK   72  A    between atoms: _194  and  _197
REMARK   73  A    between atoms: _197  and  _198
REMARK   74  A    between atoms: _201  and  _203
REMARK   75  A    between atoms: _203  and  _204
REMARK   76  A    between atoms: _203  and  _206
REMARK   77  A    between atoms: _206  and  _207
REMARK   78  A    between atoms: _212  and  _214
REMARK   79  A    between atoms: _214  and  _215
REMARK   80  A    between atoms: _218  and  _220
REMARK   81  A    between atoms: _220  and  _221
REMARK   82  A    between atoms: _220  and  _223
REMARK   83  A    between atoms: _223  and  _224
REMARK   84  A    between atoms: _224  and  _225
REMARK   85  A    between atoms: _228  and  _230
REMARK   86  A    between atoms: _230  and  _231
REMARK   87  A    between atoms: _230  and  _233
REMARK   88  A    between atoms: _233  and  _234
REMARK   89  A    between atoms: _237  and  _239
REMARK   90  A    between atoms: _239  and  _240
REMARK   91  A    between atoms: _239  and  _242
REMARK   92  A    between atoms: _242  and  _243
REMARK   93  A    between atoms: _246  and  _248
REMARK   94  A    between atoms: _248  and  _249
REMARK   95  A    between atoms: _248  and  _251
REMARK   96  A    between atoms: _251  and  _252
REMARK   97  A    between atoms: _252  and  _253
REMARK   98  A    between atoms: _258  and  _260
REMARK   99  A    between atoms: _260  and  _261
REMARK  100  A    between atoms: _260  and  _263
REMARK  101  A    between atoms: _263  and  _264
REMARK  102  A    between atoms: _264  and  _265
REMARK  103  A    between atoms: _268  and  _270
REMARK  104  A    between atoms: _270  and  _271
REMARK  105  A    between atoms: _270  and  _273
REMARK  106  A    between atoms: _273  and  _274
REMARK  107  A    between atoms: _274  and  _275
REMARK  108  A    between atoms: _275  and  _276
REMARK  109  A    between atoms: _285  and  _287
REMARK  110  A    between atoms: _287  and  _288
REMARK  111  A    between atoms: _287  and  _290
REMARK  112  A    between atoms: _293  and  _295
REMARK  113  A    between atoms: _295  and  _296
REMARK  114  A    between atoms: _295  and  _298
REMARK  115  A    between atoms: _298  and  _299
REMARK  116  A    between atoms: _299  and  _300
REMARK  117  A    between atoms: _300  and  _301
REMARK  118  A    between atoms: _310  and  _312
REMARK  119  A    between atoms: _312  and  _313
REMARK  120  A    between atoms: _312  and  _315
REMARK  121  A    between atoms: _315  and  _316
REMARK  122  A    between atoms: _316  and  _317
REMARK  123  A    between atoms: _317  and  _318
REMARK  124  A    between atoms: _318  and  _319
REMARK  125  A    between atoms: _323  and  _325
REMARK  126  A    between atoms: _325  and  _326
REMARK  127  A    between atoms: _329  and  _331
REMARK  128  A    between atoms: _331  and  _332
REMARK  129  A    between atoms: _331  and  _334
REMARK  130  A    between atoms: _334  and  _335
REMARK  131  A    between atoms: _335  and  _336
REMARK  132  A    between atoms: _339  and  _341
REMARK  133  A    between atoms: _341  and  _342
REMARK  134  A    between atoms: _341  and  _344
REMARK  135  A    between atoms: _344  and  _345
REMARK  136  A    between atoms: _345  and  _346
REMARK  137  A    between atoms: _346  and  _347
REMARK  138  A    between atoms: _356  and  _358
REMARK  139  A    between atoms: _358  and  _359
REMARK  140  A    between atoms: _358  and  _361
REMARK  141  A    between atoms: _361  and  _362
REMARK  142  A    between atoms: _372  and  _374
REMARK  143  A    between atoms: _374  and  _375
REMARK  144  A    between atoms: _378  and  _379
REMARK  145  A    between atoms: _384  and  _386
REMARK  146  A    between atoms: _386  and  _387
REMARK  147  A    between atoms: _386  and  _389
REMARK  148  A    between atoms: _389  and  _390
REMARK  149  A    between atoms: _390  and  _391
REMARK  150  A    between atoms: _391  and  _392
REMARK  151  A    between atoms: _401  and  _403
REMARK  152  A    between atoms: _403  and  _404
REMARK  153  A    between atoms: _403  and  _406
REMARK  154  A    between atoms: _406  and  _407
REMARK  155  A    between atoms: _410  and  _412
REMARK  156  A    between atoms: _412  and  _413
REMARK  157  A    between atoms: _412  and  _415
REMARK  158  A    between atoms: _415  and  _416
REMARK  159  A    between atoms: _419  and  _421
REMARK  160  A    between atoms: _421  and  _422
REMARK  161  A    between atoms: _421  and  _424
REMARK  162  A    between atoms: _424  and  _425
REMARK  163  A    between atoms: _428  and  _430
REMARK  164  A    between atoms: _430  and  _431
REMARK  165  A    between atoms: _430  and  _433
REMARK  166  A    between atoms: _433  and  _434
REMARK  167  A    between atoms: _437  and  _439
REMARK  168  A    between atoms: _439  and  _440
REMARK  169  A    between atoms: _439  and  _442
REMARK  170  A    between atoms: _442  and  _443
REMARK  171  A    between atoms: _446  and  _448
REMARK  172  A    between atoms: _448  and  _449
REMARK  173  A    between atoms: _448  and  _451
REMARK  174  A    between atoms: _451  and  _452
REMARK  175  A    between atoms: _452  and  _453
REMARK  176  A    between atoms: _455  and  _457
REMARK  177  A    between atoms: _457  and  _458
REMARK  178  A    between atoms: _457  and  _460
REMARK  179  A    between atoms: _460  and  _461
REMARK  180  A    between atoms: _464  and  _466
REMARK  181  A    between atoms: _466  and  _467
REMARK  182  A    between atoms: _466  and  _469
REMARK  183  A    between atoms: _469  and  _470
REMARK  184  A    between atoms: _476  and  _478
REMARK  185  A    between atoms: _478  and  _479
REMARK  186  A    between atoms: _478  and  _481
REMARK  187  A    between atoms: _481  and  _482
REMARK  188  A    between atoms: _485  and  _487
REMARK  189  A    between atoms: _487  and  _488
REMARK  190  A    between atoms: _487  and  _490
REMARK  191  A    between atoms: _490  and  _491
REMARK  192  A    between atoms: _496  and  _498
REMARK  193  A    between atoms: _498  and  _499
REMARK  194  A    between atoms: _498  and  _501
REMARK  195  A    between atoms: _501  and  _502
REMARK  196  A    between atoms: _505  and  _507
REMARK  197  A    between atoms: _507  and  _508
REMARK  198  A    between atoms: _507  and  _510
REMARK  199  A    between atoms: _510  and  _511
REMARK  200  A    between atoms: _511  and  _512
REMARK  201  A    between atoms: _515  and  _517
REMARK  202  A    between atoms: _517  and  _518
REMARK  203  A    between atoms: _517  and  _520
REMARK  204  A    between atoms: _520  and  _521
REMARK  205  A    between atoms: _521  and  _522
REMARK  206  A    between atoms: _522  and  _523
REMARK  207  A    between atoms: _532  and  _534
REMARK  208  A    between atoms: _534  and  _535
REMARK  209  A    between atoms: _534  and  _537
REMARK  210  A    between atoms: _537  and  _538
REMARK  211  A    between atoms: _541  and  _543
REMARK  212  A    between atoms: _543  and  _544
REMARK  213  A    between atoms: _543  and  _546
REMARK  214  A    between atoms: _546  and  _547
REMARK  215  A    between atoms: _550  and  _552
REMARK  216  A    between atoms: _552  and  _553
REMARK  217  A    between atoms: _552  and  _555
REMARK  218  A    between atoms: _559  and  _560
REMARK  219  A    between atoms: _565  and  _567
REMARK  220  A    between atoms: _567  and  _568
REMARK  221  A    between atoms: _567  and  _570
REMARK  222  A    between atoms: _570  and  _571
REMARK  223  A    between atoms: _576  and  _578
REMARK  224  A    between atoms: _578  and  _579
REMARK  225  A    between atoms: _578  and  _581
REMARK  226  A    between atoms: _581  and  _582
REMARK  227  A    between atoms: _587  and  _588
REMARK  228  A    between atoms: _590  and  _592
REMARK  229  A    between atoms: _592  and  _593
REMARK  230  A    between atoms: _592  and  _595
REMARK  231  A    between atoms: _595  and  _596
REMARK  232  A    between atoms: _599  and  _601
REMARK  233  A    between atoms: _601  and  _602
REMARK  234  A    between atoms: _601  and  _604
REMARK  235  A    between atoms: _604  and  _605
REMARK  236  A    between atoms: _605  and  _606
REMARK  237  A    between atoms: _608  and  _610
REMARK  238  A    between atoms: _610  and  _611
REMARK  239  A    between atoms: _610  and  _613
REMARK  240  A    between atoms: _613  and  _614
REMARK  241  A    between atoms: _614  and  _615
REMARK  242  A    between atoms: _615  and  _616
REMARK  243  A    between atoms: _625  and  _627
REMARK  244  A    between atoms: _627  and  _628
REMARK  245  A    between atoms: _630  and  _632
REMARK  246  A    between atoms: _632  and  _633
REMARK  247  A    between atoms: _632  and  _635
REMARK  248  A    between atoms: _635  and  _636
REMARK  249  A    between atoms: _642  and  _644
REMARK  250  A    between atoms: _644  and  _645
REMARK  251  A    between atoms: _644  and  _647
REMARK  252  A    between atoms: _647  and  _648
REMARK  253  A    between atoms: _648  and  _649
REMARK  254  A    between atoms: _651  and  _653
REMARK  255  A    between atoms: _653  and  _654
REMARK  256  A    between atoms: _653  and  _656
REMARK  257  A    between atoms: _656  and  _657
REMARK                            x       y       z     vdW  Elec       q    Type
REMARK                         _______ _______ _______ _____ _____    ______ ____
ROOT
ATOM      1  C   ASP A   4       0.786  16.152  14.330  0.00  0.00    +0.241 C 
ATOM      2  N   ILE A   5      -0.327  15.572  14.785  0.00  0.00    -0.297 N 
ATOM      3  H   ILE A   5      -0.412  15.261  15.774  0.00  0.00    +0.150 HD
ATOM      4  O   ASP A   4       0.935  16.440  13.144  0.00  0.00    -0.273 OA
ENDROOT
BRANCH   2   5
ATOM      5  CA  ILE A   5      -1.421  15.393  13.832  0.00  0.00    +0.149 C 
BRANCH   5   6
ATOM      6  C   ILE A   5      -2.205  16.692  13.724  0.00  0.00    +0.241 C 
ATOM      7  O   ILE A   5      -2.930  17.068  14.654  0.00  0.00    -0.273 OA
ATOM      8  N   MET A   6      -2.055  17.375  12.606  0.00  0.00    -0.297 N 
ATOM      9  H   MET A   6      -1.419  17.012  11.867  0.00  0.00    +0.150 HD
BRANCH   8  10
ATOM     10  CA  MET A   6      -2.762  18.626  12.388  0.00  0.00    +0.149 C 
BRANCH  10  11
ATOM     11  C   MET A   6      -4.252  18.354  12.174  0.00  0.00    +0.241 C 
ATOM     12  O   MET A   6      -5.101  18.954  12.835  0.00  0.00    -0.273 OA
ATOM     13  N   LEU A   7      -4.518  17.454  11.238  0.00  0.00    -0.297 N 
ATOM     14  H   LEU A   7      -3.711  17.002  10.763  0.00  0.00    +0.150 HD
BRANCH  13  15
ATOM     15  CA  LEU A   7      -5.851  17.051  10.826  0.00  0.00    +0.149 C 
BRANCH  15  16
ATOM     16  C   LEU A   7      -5.906  15.545  10.578  0.00  0.00    +0.241 C 
ATOM     17  N   PHE A   8      -7.050  14.926  10.817  0.00  0.00    -0.298 N 
ATOM     18  H   PHE A   8      -7.848  15.507  11.143  0.00  0.00    +0.150 HD
ATOM     19  O   LEU A   7      -4.907  14.959  10.169  0.00  0.00    -0.273 OA
BRANCH  17  20
ATOM     20  CA  PHE A   8      -7.281  13.511  10.663  0.00  0.00    +0.141 C 
BRANCH  20  21
ATOM     21  C   PHE A   8      -8.540  13.328   9.802  0.00  0.00    +0.227 C 
ATOM     22  O   PHE A   8      -9.627  13.380  10.388  0.00  0.00    -0.286 OA
ENDBRANCH  20  21
BRANCH  20  23
ATOM     23  CB  PHE A   8      -7.350  12.768  11.973  0.00  0.00    +0.054 C 
BRANCH  23  24
ATOM     24  CG  PHE A   8      -7.348  11.248  11.832  0.00  0.00    -0.020 A 
ATOM     25  CD2 PHE A   8      -6.156  10.546  11.805  0.00  0.00    -0.004 A 
ATOM     26  CE2 PHE A   8      -6.116   9.171  11.668  0.00  0.00    -0.000 A 
ATOM     27  CZ  PHE A   8      -7.301   8.468  11.544  0.00  0.00    -0.000 A 
ATOM     28  CE1 PHE A   8      -8.500   9.154  11.576  0.00  0.00    -0.000 A 
ATOM     29  CD1 PHE A   8      -8.520  10.528  11.723  0.00  0.00    -0.004 A 
ENDBRANCH  23  24
ENDBRANCH  20  23
ENDBRANCH  17  20
ENDBRANCH  15  16
BRANCH  15  30
ATOM     30  CB  LEU A   7      -6.262  17.822   9.564  0.00  0.00    +0.029 C 
BRANCH  30  31
ATOM     31  CG  LEU A   7      -6.196  19.353   9.707  0.00  0.00    +0.002 C 
ATOM     32  CD2 LEU A   7      -7.494  19.848  10.322  0.00  0.00    +0.000 C 
ATOM     33  CD1 LEU A   7      -5.902  20.027   8.389  0.00  0.00    +0.000 C 
ENDBRANCH  30  31
ENDBRANCH  15  30
ENDBRANCH  13  15
ENDBRANCH  10  11
BRANCH  10  34
ATOM     34  CB  MET A   6      -2.188  19.373  11.190  0.00  0.00    +0.041 C 
BRANCH  34  35
ATOM     35  CG  MET A   6      -0.764  19.875  11.376  0.00  0.00    +0.060 C 
BRANCH  35  36
ATOM     36  SD  MET A   6      -0.238  20.952  10.030  0.00  0.00    -0.139 S 
ATOM     37  CE  MET A   6       0.036  19.781   8.703  0.00  0.00    +0.069 C 
ENDBRANCH  35  36
ENDBRANCH  34  35
ENDBRANCH  10  34
ENDBRANCH   8  10
ENDBRANCH   5   6
BRANCH   5  38
ATOM     38  CB  ILE A   5      -2.354  14.252  14.266  0.00  0.00    +0.027 C 
ATOM     39  CG2 ILE A   5      -3.606  14.213  13.413  0.00  0.00    +0.002 C 
BRANCH  38  40
ATOM     40  CG1 ILE A   5      -1.670  12.878  14.283  0.00  0.00    +0.002 C 
ATOM     41  CD1 ILE A   5      -2.001  12.103  15.547  0.00  0.00    +0.000 C 
ENDBRANCH  38  40
ENDBRANCH   5  38
ENDBRANCH   2   5
BRANCH   1  42
ATOM     42  CA  ASP A   4       1.865  16.425  15.367  0.00  0.00    +0.160 C 
BRANCH  42  45
ATOM     43  C   LEU A   3       3.805  14.939  15.580  0.00  0.00    +0.241 C 
ATOM     44  O   LEU A   3       3.421  14.376  16.598  0.00  0.00    -0.273 OA
ATOM     45  N   ASP A   4       3.138  15.879  14.923  0.00  0.00    -0.297 N 
ATOM     46  H   ASP A   4       3.548  16.246  14.041  0.00  0.00    +0.150 HD
BRANCH  43  47
ATOM     47  CA  LEU A   3       5.178  14.602  15.008  0.00  0.00    +0.149 C 
BRANCH  47  49
ATOM     48  C   ASP A   2       6.995  15.987  15.671  0.00  0.00    +0.241 C 
ATOM     49  N   LEU A   3       6.134  15.042  16.026  0.00  0.00    -0.297 N 
ATOM     50  H   LEU A   3       6.138  14.633  16.982  0.00  0.00    +0.150 HD
ATOM     51  O   ASP A   2       7.185  16.330  14.506  0.00  0.00    -0.273 OA
BRANCH  48  52
ATOM     52  CA  ASP A   2       7.776  16.642  16.800  0.00  0.00    +0.160 C 
BRANCH  52  55
ATOM     53  C   LEU A   1      10.053  16.020  17.453  0.00  0.00    +0.238 C 
ATOM     54  O   LEU A   1       9.798  15.829  18.631  0.00  0.00    -0.274 OA
ATOM     55  N   ASP A   2       9.183  16.425  16.545  0.00  0.00    -0.297 N 
ATOM     56  H   ASP A   2       9.534  16.600  15.582  0.00  0.00    +0.150 HD
BRANCH  53  57
ATOM     57  CA  LEU A   1      11.442  15.768  16.882  0.00  0.00    +0.145 C 
BRANCH  57  58
ATOM     58  N   LEU A   1      12.515  16.166  17.780  0.00  0.00    -0.238 NA
ATOM     59  H   LEU A   1      12.352  16.233  18.805  0.00  0.00    +0.142 HD
ENDBRANCH  57  58
BRANCH  57  60
ATOM     60  CB  LEU A   1      11.520  14.268  16.533  0.00  0.00    +0.026 C 
BRANCH  60  61
ATOM     61  CG  LEU A   1      10.515  13.830  15.458  0.00  0.00    +0.002 C 
ATOM     62  CD2 LEU A   1      10.632  12.348  15.130  0.00  0.00    +0.000 C 
ATOM     63  CD1 LEU A   1      10.699  14.636  14.181  0.00  0.00    +0.000 C 
ENDBRANCH  60  61
ENDBRANCH  57  60
ENDBRANCH  53  57
ENDBRANCH  52  55
BRANCH  52  64
ATOM     64  CB  ASP A   2       7.424  18.119  16.860  0.00  0.00    +0.143 C 
BRANCH  64  65
ATOM     65  CG  ASP A   2       7.554  18.743  18.231  0.00  0.00    +0.367 C 
ATOM     66  OD2 ASP A   2       7.702  18.010  19.229  0.00  0.00    -0.246 OA
ATOM     67  OD1 ASP A   2       7.501  19.993  18.306  0.00  0.00    -0.246 OA
ENDBRANCH  64  65
ENDBRANCH  52  64
ENDBRANCH  48  52
ENDBRANCH  47  49
BRANCH  47  68
ATOM     68  CB  LEU A   3       5.347  13.130  14.645  0.00  0.00    +0.029 C 
BRANCH  68  69
ATOM     69  CG  LEU A   3       6.728  12.806  14.053  0.00  0.00    +0.002 C 
ATOM     70  CD2 LEU A   3       6.945  11.297  14.002  0.00  0.00    +0.000 C 
ATOM     71  CD1 LEU A   3       6.872  13.418  12.673  0.00  0.00    +0.000 C 
ENDBRANCH  68  69
ENDBRANCH  47  68
ENDBRANCH  43  47
ENDBRANCH  42  45
BRANCH  42  72
ATOM     72  CB  ASP A   4       1.982  17.931  15.620  0.00  0.00    +0.143 C 
BRANCH  72  73
ATOM     73  CG  ASP A   4       2.589  18.268  16.964  0.00  0.00    +0.367 C 
ATOM     74  OD2 ASP A   4       2.217  17.657  17.991  0.00  0.00    -0.246 OA
ATOM     75  OD1 ASP A   4       3.467  19.162  16.980  0.00  0.00    -0.246 OA
ENDBRANCH  72  73
ENDBRANCH  42  72
ENDBRANCH   1  42
TORSDOF 33
REMARK  Name = ../refined-set-2016/1ex8/1ex8_pocket.pdb
REMARK  257 active torsions:
REMARK  status: ('A' for Active; 'I' for Inactive)
REMARK    1  A    between atoms: _1  and  _3
REMARK    2  A    between atoms: _3  and  _4
REMARK    3  A    between atoms: _3  and  _6
REMARK    4  A    between atoms: _6  and  _7
REMARK    5  A    between atoms: _12  and  _13
REMARK    6  A    between atoms: _15  and  _17
REMARK    7  A    between atoms: _17  and  _18
REMARK    8  A    between atoms: _17  and  _20
REMARK    9  A    between atoms: _20  and  _21
REMARK   10  A    between atoms: _24  and  _26
REMARK   11  A    between atoms: _26  and  _27
REMARK   12  A    between atoms: _30  and  _32
REMARK   13  A    between atoms: _32  and  _33
REMARK   14  A    between atoms: _32  and  _35
REMARK   15  A    between atoms: _35  and  _36
REMARK   16  A    between atoms: _39  and  _41
REMARK   17  A    between atoms: _41  and  _42
REMARK   18  A    between atoms: _44  and  _46
REMARK   19  A    between atoms: _46  and  _47
REMARK   20  A    between atoms: _46  and  _49
REMARK   21  A    between atoms: _49  and  _50
REMARK   22  A    between atoms: _52  and  _54
REMARK   23  A    between atoms: _54  and  _55
REMARK   24  A    between atoms: _54  and  _57
REMARK   25  A    between atoms: _57  and  _58
REMARK   26  A    between atoms: _63  and  _65
REMARK   27  A    between atoms: _65  and  _66
REMARK   28  A    between atoms: _65  and  _68
REMARK   29  A    between atoms: _68  and  _69
REMARK   30  A    between atoms: _74  and  _75
REMARK   31  A    between atoms: _77  and  _79
REMARK   32  A    between atoms: _79  and  _80
REMARK   33  A    between atoms: _79  and  _82
REMARK   34  A    between atoms: _82  and  _83
REMARK   35  A    between atoms: _83  and  _84
REMARK   36  A    between atoms: _84  and  _85
REMARK   37  A    between atoms: _94  and  _96
REMARK   38  A    between atoms: _96  and  _97
REMARK   39  A    between atoms: _96  and  _99
REMARK   40  A    between atoms: _99  and  _100
REMARK   41  A    between atoms: _104  and  _105
REMARK   42  A    between atoms: _111  and  _112
REMARK   43  A    between atoms: _117  and  _119
REMARK   44  A    between atoms: _119  and  _120
REMARK   45  A    between atoms: _119  and  _122
REMARK   46  A    between atoms: _122  and  _123
REMARK   47  A    between atoms: _126  and  _128
REMARK   48  A    between atoms: _128  and  _129
REMARK   49  A    between atoms: _132  and  _133
REMARK   50  A    between atoms: _138  and  _140
REMARK   51  A    between atoms: _140  and  _141
REMARK   52  A    between atoms: _140  and  _143
REMARK   53  A    between atoms: _143  and  _144
REMARK   54  A    between atoms: _144  and  _145
REMARK   55  A    between atoms: _150  and  _152
REMARK   56  A    between atoms: _152  and  _153
REMARK   57  A    between atoms: _152  and  _155
REMARK   58  A    between atoms: _155  and  _156
REMARK   59  A    between atoms: _156  and  _157
REMARK   60  A    between atoms: _163  and  _164
REMARK   61  A    between atoms: _169  and  _171
REMARK   62  A    between atoms: _171  and  _172
REMARK   63  A    between atoms: _171  and  _174
REMARK   64  A    between atoms: _174  and  _175
REMARK   65  A    between atoms: _178  and  _180
REMARK   66  A    between atoms: _180  and  _181
REMARK   67  A    between atoms: _180  and  _183
REMARK   68  A    between atoms: _183  and  _184
REMARK   69  A    between atoms: _189  and  _190
REMARK   70  A    between atoms: _192  and  _194
REMARK   71  A    between atoms: _194  and  _195
REMARK   72  A    between atoms: _194  and  _197
REMARK   73  A    between atoms: _197  and  _198
REMARK   74  A    between atoms: _201  and  _203
REMARK   75  A    between atoms: _203  and  _204
REMARK   76  A    between atoms: _203  and  _206
REMARK   77  A    between atoms: _206  and  _207
REMARK   78  A    between atoms: _212  and  _214
REMARK   79  A    between atoms: _214  and  _215
REMARK   80  A    between atoms: _218  and  _220
REMARK   81  A    between atoms: _220  and  _221
REMARK   82  A    between atoms: _220  and  _223
REMARK   83  A    between atoms: _223  and  _224
REMARK   84  A    between atoms: _224  and  _225
REMARK   85  A    between atoms: _228  and  _230
REMARK   86  A    between atoms: _230  and  _231
REMARK   87  A    between atoms: _230  and  _233
REMARK   88  A    between atoms: _233  and  _234
REMARK   89  A    between atoms: _237  and  _239
REMARK   90  A    between atoms: _239  and  _240
REMARK   91  A    between atoms: _239  and  _242
REMARK   92  A    between atoms: _242  and  _243
REMARK   93  A    between atoms: _246  and  _248
REMARK   94  A    between atoms: _248  and  _249
REMARK   95  A    between atoms: _248  and  _251
REMARK   96  A    between atoms: _251  and  _252
REMARK   97  A    between atoms: _252  and  _253
REMARK   98  A    between atoms: _258  and  _260
REMARK   99  A    between atoms: _260  and  _261
REMARK  100  A    between atoms: _260  and  _263
REMARK  101  A    between atoms: _263  and  _264
REMARK  102  A    between atoms: _264  and  _265
REMARK  103  A    between atoms: _268  and  _270
REMARK  104  A    between atoms: _270  and  _271
REMARK  105  A    between atoms: _270  and  _273
REMARK  106  A    between atoms: _273  and  _274
REMARK  107  A    between atoms: _274  and  _275
REMARK  108  A    between atoms: _275  and  _276
REMARK  109  A    between atoms: _285  and  _287
REMARK  110  A    between atoms: _287  and  _288
REMARK  111  A    between atoms: _287  and  _290
REMARK  112  A    between atoms: _293  and  _295
REMARK  113  A    between atoms: _295  and  _296
REMARK  114  A    between atoms: _295  and  _298
REMARK  115  A    between atoms: _298  and  _299
REMARK  116  A    between atoms: _299  and  _300
REMARK  117  A    between atoms: _300  and  _301
REMARK  118  A    between atoms: _310  and  _312
REMARK  119  A    between atoms: _312  and  _313
REMARK  120  A    between atoms: _312  and  _315
REMARK  121  A    between atoms: _315  and  _316
REMARK  122  A    between atoms: _316  and  _317
REMARK  123  A    between atoms: _317  and  _318
REMARK  124  A    between atoms: _318  and  _319
REMARK  125  A    between atoms: _323  and  _325
REMARK  126  A    between atoms: _325  and  _326
REMARK  127  A    between atoms: _329  and  _331
REMARK  128  A    between atoms: _331  and  _332
REMARK  129  A    between atoms: _331  and  _334
REMARK  130  A    between atoms: _334  and  _335
REMARK  131  A    between atoms: _335  and  _336
REMARK  132  A    between atoms: _339  and  _341
REMARK  133  A    between atoms: _341  and  _342
REMARK  134  A    between atoms: _341  and  _344
REMARK  135  A    between atoms: _344  and  _345
REMARK  136  A    between atoms: _345  and  _346
REMARK  137  A    between atoms: _346  and  _347
REMARK  138  A    between atoms: _356  and  _358
REMARK  139  A    between atoms: _358  and  _359
REMARK  140  A    between atoms: _358  and  _361
REMARK  141  A    between atoms: _361  and  _362
REMARK  142  A    between atoms: _372  and  _374
REMARK  143  A    between atoms: _374  and  _375
REMARK  144  A    between atoms: _378  and  _379
REMARK  145  A    between atoms: _384  and  _386
REMARK  146  A    between atoms: _386  and  _387
REMARK  147  A    between atoms: _386  and  _389
REMARK  148  A    between atoms: _389  and  _390
REMARK  149  A    between atoms: _390  and  _391
REMARK  150  A    between atoms: _391  and  _392
REMARK  151  A    between atoms: _401  and  _403
REMARK  152  A    between atoms: _403  and  _404
REMARK  153  A    between atoms: _403  and  _406
REMARK  154  A    between atoms: _406  and  _407
REMARK  155  A    between atoms: _410  and  _412
REMARK  156  A    between atoms: _412  and  _413
REMARK  157  A    between atoms: _412  and  _415
REMARK  158  A    between atoms: _415  and  _416
REMARK  159  A    between atoms: _419  and  _421
REMARK  160  A    between atoms: _421  and  _422
REMARK  161  A    between atoms: _421  and  _424
REMARK  162  A    between atoms: _424  and  _425
REMARK  163  A    between atoms: _428  and  _430
REMARK  164  A    between atoms: _430  and  _431
REMARK  165  A    between atoms: _430  and  _433
REMARK  166  A    between atoms: _433  and  _434
REMARK  167  A    between atoms: _437  and  _439
REMARK  168  A    between atoms: _439  and  _440
REMARK  169  A    between atoms: _439  and  _442
REMARK  170  A    between atoms: _442  and  _443
REMARK  171  A    between atoms: _446  and  _448
REMARK  172  A    between atoms: _448  and  _449
REMARK  173  A    between atoms: _448  and  _451
REMARK  174  A    between atoms: _451  and  _452
REMARK  175  A    between atoms: _452  and  _453
REMARK  176  A    between atoms: _455  and  _457
REMARK  177  A    between atoms: _457  and  _458
REMARK  178  A    between atoms: _457  and  _460
REMARK  179  A    between atoms: _460  and  _461
REMARK  180  A    between atoms: _464  and  _466
REMARK  181  A    between atoms: _466  and  _467
REMARK  182  A    between atoms: _466  and  _469
REMARK  183  A    between atoms: _469  and  _470
REMARK  184  A    between atoms: _476  and  _478
REMARK  185  A    between atoms: _478  and  _479
REMARK  186  A    between atoms: _478  and  _481
REMARK  187  A    between atoms: _481  and  _482
REMARK  188  A    between atoms: _485  and  _487
REMARK  189  A    between atoms: _487  and  _488
REMARK  190  A    between atoms: _487  and  _490
REMARK  191  A    between atoms: _490  and  _491
REMARK  192  A    between atoms: _496  and  _498
REMARK  193  A    between atoms: _498  and  _499
REMARK  194  A    between atoms: _498  and  _501
REMARK  195  A    between atoms: _501  and  _502
REMARK  196  A    between atoms: _505  and  _507
REMARK  197  A    between atoms: _507  and  _508
REMARK  198  A    between atoms: _507  and  _510
REMARK  199  A    between atoms: _510  and  _511
REMARK  200  A    between atoms: _511  and  _512
REMARK  201  A    between atoms: _515  and  _517
REMARK  202  A    between atoms: _517  and  _518
REMARK  203  A    between atoms: _517  and  _520
REMARK  204  A    between atoms: _520  and  _521
REMARK  205  A    between atoms: _521  and  _522
REMARK  206  A    between atoms: _522  and  _523
REMARK  207  A    between atoms: _532  and  _534
REMARK  208  A    between atoms: _534  and  _535
REMARK  209  A    between atoms: _534  and  _537
REMARK  210  A    between atoms: _537  and  _538
REMARK  211  A    between atoms: _541  and  _543
REMARK  212  A    between atoms: _543  and  _544
REMARK  213  A    between atoms: _543  and  _546
REMARK  214  A    between atoms: _546  and  _547
REMARK  215  A    between atoms: _550  and  _552
REMARK  216  A    between atoms: _552  and  _553
REMARK  217  A    between atoms: _552  and  _555
REMARK  218  A    between atoms: _559  and  _560
REMARK  219  A    between atoms: _565  and  _567
REMARK  220  A    between atoms: _567  and  _568
REMARK  221  A    between atoms: _567  and  _570
REMARK  222  A    between atoms: _570  and  _571
REMARK  223  A    between atoms: _576  and  _578
REMARK  224  A    between atoms: _578  and  _579
REMARK  225  A    between atoms: _578  and  _581
REMARK  226  A    between atoms: _581  and  _582
REMARK  227  A    between atoms: _587  and  _588
REMARK  228  A    between atoms: _590  and  _592
REMARK  229  A    between atoms: _592  and  _593
REMARK  230  A    between atoms: _592  and  _595
REMARK  231  A    between atoms: _595  and  _596
REMARK  232  A    between atoms: _599  and  _601
REMARK  233  A    between atoms: _601  and  _602
REMARK  234  A    between atoms: _601  and  _604
REMARK  235  A    between atoms: _604  and  _605
REMARK  236  A    between atoms: _605  and  _606
REMARK  237  A    between atoms: _608  and  _610
REMARK  238  A    between atoms: _610  and  _611
REMARK  239  A    between atoms: _610  and  _613
REMARK  240  A    between atoms: _613  and  _614
REMARK  241  A    between atoms: _614  and  _615
REMARK  242  A    between atoms: _615  and  _616
REMARK  243  A    between atoms: _625  and  _627
REMARK  244  A    between atoms: _627  and  _628
REMARK  245  A    between atoms: _630  and  _632
REMARK  246  A    between atoms: _632  and  _633
REMARK  247  A    between atoms: _632  and  _635
REMARK  248  A    between atoms: _635  and  _636
REMARK  249  A    between atoms: _642  and  _644
REMARK  250  A    between atoms: _644  and  _645
REMARK  251  A    between atoms: _644  and  _647
REMARK  252  A    between atoms: _647  and  _648
REMARK  253  A    between atoms: _648  and  _649
REMARK  254  A    between atoms: _651  and  _653
REMARK  255  A    between atoms: _653  and  _654
REMARK  256  A    between atoms: _653  and  _656
REMARK  257  A    between atoms: _656  and  _657
REMARK                            x       y       z     vdW  Elec       q    Type
REMARK                         _______ _______ _______ _____ _____    ______ ____
ROOT
ATOM      1  C   LEU A   6      -6.806  15.203  21.033  0.00  0.00    +0.241 C 
ATOM      2  O   LEU A   6      -7.998  15.158  21.329  0.00  0.00    -0.273 OA
ATOM      3  N   THR A   7      -6.264  16.301  20.499  0.00  0.00    -0.295 N 
ATOM      4  H   THR A   7      -5.231  16.347  20.387  0.00  0.00    +0.150 HD
ENDROOT
BRANCH   1   5
ATOM      5  CA  LEU A   6      -5.877  14.014  21.207  0.00  0.00    +0.149 C 
BRANCH   5   8
ATOM      6  C   ARG A   5      -4.699  13.337  23.199  0.00  0.00    +0.241 C 
ATOM      7  O   ARG A   5      -3.676  13.907  22.795  0.00  0.00    -0.273 OA
ATOM      8  N   LEU A   6      -5.849  13.392  22.521  0.00  0.00    -0.297 N 
ATOM      9  H   LEU A   6      -6.718  12.993  22.930  0.00  0.00    +0.150 HD
BRANCH   6  10
ATOM     10  CA  ARG A   5      -4.693  12.543  24.498  0.00  0.00    +0.149 C 
BRANCH  10  13
ATOM     11  C   GLU A   4      -6.234  13.362  26.270  0.00  0.00    +0.241 C 
ATOM     12  O   GLU A   4      -5.460  14.168  26.792  0.00  0.00    -0.273 OA
ATOM     13  N   ARG A   5      -5.948  12.614  25.219  0.00  0.00    -0.297 N 
ATOM     14  H   ARG A   5      -6.714  12.004  24.868  0.00  0.00    +0.150 HD
BRANCH  11  15
ATOM     15  CA  GLU A   4      -7.637  13.181  26.857  0.00  0.00    +0.149 C 
BRANCH  15  17
ATOM     16  C   THR A   3      -8.878  13.870  24.821  0.00  0.00    +0.243 C 
ATOM     17  N   GLU A   4      -8.663  13.054  25.840  0.00  0.00    -0.297 N 
ATOM     18  H   GLU A   4      -9.298  12.234  25.920  0.00  0.00    +0.150 HD
ATOM     19  O   THR A   3      -8.253  14.906  24.608  0.00  0.00    -0.273 OA
BRANCH  16  20
ATOM     20  CA  THR A   3      -9.980  13.411  23.821  0.00  0.00    +0.176 C 
BRANCH  20  23
ATOM     21  C   ASN A   2     -11.032  15.365  22.836  0.00  0.00    +0.241 C 
ATOM     22  O   ASN A   2     -11.694  15.594  23.854  0.00  0.00    -0.273 OA
ATOM     23  N   THR A   3     -10.185  14.347  22.766  0.00  0.00    -0.295 N 
ATOM     24  H   THR A   3      -9.638  14.224  21.890  0.00  0.00    +0.150 HD
BRANCH  21  25
ATOM     25  CA  ASN A   2     -11.177  16.282  21.624  0.00  0.00    +0.158 C 
BRANCH  25  27
ATOM     26  C   ILE A   1     -10.842  15.743  19.278  0.00  0.00    +0.238 C 
ATOM     27  N   ASN A   2     -11.530  15.560  20.407  0.00  0.00    -0.297 N 
ATOM     28  H   ASN A   2     -12.328  14.894  20.419  0.00  0.00    +0.150 HD
ATOM     29  O   ILE A   1      -9.903  16.540  19.191  0.00  0.00    -0.274 OA
BRANCH  26  30
ATOM     30  CA  ILE A   1     -11.262  14.912  18.079  0.00  0.00    +0.145 C 
BRANCH  30  31
ATOM     31  N   ILE A   1     -11.514  15.733  16.896  0.00  0.00    -0.238 NA
ATOM     32  H   ILE A   1     -10.721  16.228  16.441  0.00  0.00    +0.142 HD
ENDBRANCH  30  31
BRANCH  30  33
ATOM     33  CB  ILE A   1     -10.186  13.865  17.715  0.00  0.00    +0.025 C 
ATOM     34  CG2 ILE A   1      -9.965  12.887  18.854  0.00  0.00    +0.002 C 
BRANCH  33  35
ATOM     35  CG1 ILE A   1     -10.525  13.164  16.401  0.00  0.00    +0.002 C 
ATOM     36  CD1 ILE A   1      -9.365  12.882  15.483  0.00  0.00    +0.000 C 
ENDBRANCH  33  35
ENDBRANCH  30  33
ENDBRANCH  26  30
ENDBRANCH  25  27
BRANCH  25  37
ATOM     37  CB  ASN A   2     -12.216  17.355  21.953  0.00  0.00    +0.114 C 
BRANCH  37  38
ATOM     38  CG  ASN A   2     -12.391  18.438  20.915  0.00  0.00    +0.222 C 
ATOM     39  OD1 ASN A   2     -11.560  19.330  20.734  0.00  0.00    -0.275 OA
ATOM     40  ND2 ASN A   2     -13.519  18.386  20.205  0.00  0.00    -0.329 N 
ATOM     41 HD21 ASN A   2     -14.206  17.624  20.375  0.00  0.00    +0.145 HD
ATOM     42 HD22 ASN A   2     -13.712  19.108  19.481  0.00  0.00    +0.145 HD
ENDBRANCH  37  38
ENDBRANCH  25  37
ENDBRANCH  21  25
ENDBRANCH  20  23
BRANCH  20  43
ATOM     43  CB  THR A   3      -9.668  11.999  23.388  0.00  0.00    +0.137 C 
ATOM     44  CG2 THR A   3     -10.715  11.519  22.396  0.00  0.00    +0.034 C 
BRANCH  43  45
ATOM     45  OG1 THR A   3      -8.413  11.996  22.689  0.00  0.00    -0.382 OA
ATOM     46  HG1 THR A   3      -8.199  11.073  22.401  0.00  0.00    +0.210 HD
ENDBRANCH  43  45
ENDBRANCH  20  43
ENDBRANCH  16  20
ENDBRANCH  15  17
BRANCH  15  47
ATOM     47  CB  GLU A   4      -7.640  11.942  27.764  0.00  0.00    +0.041 C 
BRANCH  47  48
ATOM     48  CG  GLU A   4      -8.489  12.087  29.019  0.00  0.00    +0.116 C 
BRANCH  48  49
ATOM     49  CD  GLU A   4      -7.862  13.036  30.028  0.00  0.00    +0.365 C 
ATOM     50  OE2 GLU A   4      -8.443  13.197  31.125  0.00  0.00    -0.246 OA
ATOM     51  OE1 GLU A   4      -6.795  13.613  29.717  0.00  0.00    -0.246 OA
ENDBRANCH  48  49
ENDBRANCH  47  48
ENDBRANCH  15  47
ENDBRANCH  11  15
ENDBRANCH  10  13
BRANCH  10  52
ATOM     52  CB  ARG A   5      -4.362  11.077  24.171  0.00  0.00    +0.033 C 
BRANCH  52  53
ATOM     53  CG  ARG A   5      -4.114  10.211  25.391  0.00  0.00    +0.045 C 
BRANCH  53  54
ATOM     54  CD  ARG A   5      -3.778   8.783  24.994  0.00  0.00    +0.174 C 
BRANCH  54  55
ATOM     55  NE  ARG A   5      -2.460   8.684  24.376  0.00  0.00    -0.265 N 
ATOM     56  HE  ARG A   5      -1.817   9.496  24.472  0.00  0.00    +0.259 HD
ATOM     57  CZ  ARG A   5      -2.027   7.627  23.700  0.00  0.00    +0.342 C 
ATOM     58  NH2 ARG A   5      -2.804   6.567  23.543  0.00  0.00    -0.292 N 
ATOM     59 HH21 ARG A   5      -3.761   6.559  23.951  0.00  0.00    +0.255 HD
ATOM     60 HH22 ARG A   5      -2.458   5.743  23.012  0.00  0.00    +0.255 HD
ATOM     61  NH1 ARG A   5      -0.807   7.639  23.177  0.00  0.00    -0.292 N 
ATOM     62 HH11 ARG A   5      -0.197   8.473  23.298  0.00  0.00    +0.255 HD
ATOM     63 HH12 ARG A   5      -0.461   6.815  22.646  0.00  0.00    +0.255 HD
ENDBRANCH  54  55
ENDBRANCH  53  54
ENDBRANCH  52  53
ENDBRANCH  10  52
ENDBRANCH   6  10
ENDBRANCH   5   8
BRANCH   5  64
ATOM     64  CB  LEU A   6      -6.277  12.920  20.186  0.00  0.00    +0.029 C 
BRANCH  64  65
ATOM     65  CG  LEU A   6      -5.589  13.027  18.829  0.00  0.00    +0.002 C 
ATOM     66  CD2 LEU A   6      -4.161  13.532  19.001  0.00  0.00    +0.000 C 
ATOM     67  CD1 LEU A   6      -5.613  11.697  18.087  0.00  0.00    +0.000 C 
ENDBRANCH  64  65
ENDBRANCH   5  64
ENDBRANCH   1   5
BRANCH   3  68
ATOM     68  CA  THR A   7      -7.067  17.433  20.069  0.00  0.00    +0.176 C 
BRANCH  68  69
ATOM     69  C   THR A   7      -6.937  17.624  18.564  0.00  0.00    +0.243 C 
ATOM     70  O   THR A   7      -5.869  18.003  18.071  0.00  0.00    -0.273 OA
ATOM     71  N   VAL A   8      -8.002  17.370  17.799  0.00  0.00    -0.297 N 
ATOM     72  H   VAL A   8      -8.915  17.077  18.202  0.00  0.00    +0.150 HD
BRANCH  71  73
ATOM     73  CA  VAL A   8      -7.803  17.530  16.354  0.00  0.00    +0.149 C 
BRANCH  73  74
ATOM     74  C   VAL A   8      -8.991  18.287  15.775  0.00  0.00    +0.244 C 
ATOM     75  O   VAL A   8     -10.122  17.931  16.133  0.00  0.00    -0.273 OA
ATOM     76  N   PRO A   9      -8.793  19.297  14.932  0.00  0.00    -0.272 N 
ATOM     77  CA  PRO A   9      -7.514  19.823  14.450  0.00  0.00    +0.152 C 
ATOM     78  CB  PRO A   9      -7.907  20.896  13.425  0.00  0.00    +0.031 C 
ATOM     79  CG  PRO A   9      -9.298  20.500  13.024  0.00  0.00    +0.024 C 
ATOM     80  CD  PRO A   9      -9.922  20.051  14.324  0.00  0.00    +0.094 C 
BRANCH  77  81
ATOM     81  C   PRO A   9      -6.637  20.462  15.530  0.00  0.00    +0.241 C 
ATOM     82  O   PRO A   9      -7.142  20.931  16.544  0.00  0.00    -0.273 OA
ATOM     83  N   HIS A  10      -5.326  20.361  15.300  0.00  0.00    -0.297 N 
ATOM     84  H   HIS A  10      -5.003  20.039  14.365  0.00  0.00    +0.150 HD
BRANCH  83  85
ATOM     85  CA  HIS A  10      -4.333  20.687  16.314  0.00  0.00    +0.155 C 
BRANCH  85  86
ATOM     86  C   HIS A  10      -4.618  22.080  16.872  0.00  0.00    +0.241 C 
ATOM     87  N   TYR A  11      -4.525  22.174  18.186  0.00  0.00    -0.297 N 
ATOM     88  H   TYR A  11      -4.279  21.321  18.727  0.00  0.00    +0.150 HD
ATOM     89  O   HIS A  10      -4.940  22.997  16.123  0.00  0.00    -0.273 OA
BRANCH  87  90
ATOM     90  CA  TYR A  11      -4.750  23.411  18.912  0.00  0.00    +0.153 C 
BRANCH  90  91
ATOM     91  C   TYR A  11      -3.991  24.548  18.251  0.00  0.00    +0.241 C 
ATOM     92  N   ASP A  12      -4.678  25.660  18.016  0.00  0.00    -0.297 N 
ATOM     93  H   ASP A  12      -5.709  25.648  18.148  0.00  0.00    +0.150 HD
ATOM     94  O   TYR A  11      -2.800  24.394  17.966  0.00  0.00    -0.273 OA
BRANCH  92  95
ATOM     95  CA  ASP A  12      -4.042  26.897  17.580  0.00  0.00    +0.160 C 
BRANCH  95  96
ATOM     96  C   ASP A  12      -3.332  26.804  16.243  0.00  0.00    +0.241 C 
ATOM     97  O   ASP A  12      -2.549  27.691  15.887  0.00  0.00    -0.273 OA
ATOM     98  N   MET A  13      -3.550  25.751  15.457  0.00  0.00    -0.298 N 
ATOM     99  H   MET A  13      -4.248  25.026  15.721  0.00  0.00    +0.150 HD
BRANCH  98 100
ATOM    100  CA  MET A  13      -2.787  25.636  14.214  0.00  0.00    +0.138 C 
BRANCH 100 101
ATOM    101  C   MET A  13      -3.209  26.687  13.197  0.00  0.00    +0.227 C 
ATOM    102  O   MET A  13      -2.427  27.009  12.297  0.00  0.00    -0.286 OA
ENDBRANCH 100 101
BRANCH 100 103
ATOM    103  CB  MET A  13      -2.922  24.228  13.623  0.00  0.00    +0.039 C 
BRANCH 103 104
ATOM    104  CG  MET A  13      -4.351  23.819  13.314  0.00  0.00    +0.060 C 
BRANCH 104 105
ATOM    105  SD  MET A  13      -4.419  22.360  12.250  0.00  0.00    -0.139 S 
ATOM    106  CE  MET A  13      -3.593  22.957  10.781  0.00  0.00    +0.069 C 
ENDBRANCH 104 105
ENDBRANCH 103 104
ENDBRANCH 100 103
ENDBRANCH  98 100
ENDBRANCH  95  96
BRANCH  95 107
ATOM    107  CB  ASP A  12      -3.029  27.341  18.653  0.00  0.00    +0.143 C 
BRANCH 107 108
ATOM    108  CG  ASP A  12      -2.587  28.780  18.461  0.00  0.00    +0.367 C 
ATOM    109  OD2 ASP A  12      -1.397  29.095  18.642  0.00  0.00    -0.246 OA
ATOM    110  OD1 ASP A  12      -3.459  29.601  18.110  0.00  0.00    -0.246 OA
ENDBRANCH 107 108
ENDBRANCH  95 107
ENDBRANCH  92  95
ENDBRANCH  90  91
BRANCH  90 111
ATOM    111  CB  TYR A  11      -4.308  23.213  20.358  0.00  0.00    +0.055 C 
BRANCH 111 112
ATOM    112  CG  TYR A  11      -4.274  24.461  21.199  0.00  0.00    -0.020 A 
ATOM    113  CD2 TYR A  11      -3.068  24.980  21.655  0.00  0.00    -0.001 A 
ATOM    114  CE2 TYR A  11      -3.046  26.128  22.426  0.00  0.00    +0.036 A 
ATOM    115  CZ  TYR A  11      -4.232  26.756  22.743  0.00  0.00    +0.134 A 
ATOM    116  CE1 TYR A  11      -5.443  26.259  22.305  0.00  0.00    +0.036 A 
ATOM    117  CD1 TYR A  11      -5.455  25.114  21.534  0.00  0.00    -0.001 A 
BRANCH 115 118
ATOM    118  OH  TYR A  11      -4.216  27.897  23.508  0.00  0.00    -0.506 OA
ATOM    119  HH  TYR A  11      -3.805  27.698  24.386  0.00  0.00    +0.292 HD
ENDBRANCH 115 118
ENDBRANCH 111 112
ENDBRANCH  90 111
ENDBRANCH  87  90
ENDBRANCH  85  86
BRANCH  85 120
ATOM    120  CB  HIS A  10      -2.917  20.576  15.751  0.00  0.00    +0.076 C 
BRANCH 120 121
ATOM    121  CG  HIS A  10      -1.815  20.666  16.756  0.00  0.00    +0.082 A 
ATOM    122  ND1 HIS A  10      -1.587  21.770  17.544  0.00  0.00    -0.227 NA
ATOM    123  CE1 HIS A  10      -0.547  21.567  18.335  0.00  0.00    +0.199 A 
ATOM    124  NE2 HIS A  10      -0.085  20.360  18.085  0.00  0.00    -0.221 NA
ATOM    125  CD2 HIS A  10      -0.857  19.777  17.108  0.00  0.00    +0.115 A 
ENDBRANCH 120 121
ENDBRANCH  85 120
ENDBRANCH  83  85
ENDBRANCH  77  81
ENDBRANCH  73  74
BRANCH  73 126
ATOM    126  CB  VAL A   8      -7.543  16.210  15.621  0.00  0.00    +0.027 C 
ATOM    127  CG2 VAL A   8      -6.081  15.808  15.819  0.00  0.00    +0.002 C 
ATOM    128  CG1 VAL A   8      -7.863  16.310  14.140  0.00  0.00    +0.002 C 
ENDBRANCH  73 126
ENDBRANCH  71  73
ENDBRANCH  68  69
BRANCH  68 129
ATOM    129  CB  THR A   7      -6.643  18.765  20.721  0.00  0.00    +0.137 C 
ATOM    130  CG2 THR A   7      -7.417  19.915  20.105  0.00  0.00    +0.034 C 
BRANCH 129 131
ATOM    131  OG1 THR A   7      -6.961  18.736  22.112  0.00  0.00    -0.382 OA
ATOM    132  HG1 THR A   7      -7.936  18.609  22.224  0.00  0.00    +0.210 HD
ENDBRANCH 129 131
ENDBRANCH  68 129
ENDBRANCH   3  68
TORSDOF 53
REMARK  Name = ../refined-set-2016/1ex8/1ex8_pocket.pdb
REMARK  257 active torsions:
REMARK  status: ('A' for Active; 'I' for Inactive)
REMARK    1  A    between atoms: _1  and  _3
REMARK    2  A    between atoms: _3  and  _4
REMARK    3  A    between atoms: _3  and  _6
REMARK    4  A    between atoms: _6  and  _7
REMARK    5  A    between atoms: _12  and  _13
REMARK    6  A    between atoms: _15  and  _17
REMARK    7  A    between atoms: _17  and  _18
REMARK    8  A    between atoms: _17  and  _20
REMARK    9  A    between atoms: _20  and  _21
REMARK   10  A    between atoms: _24  and  _26
REMARK   11  A    between atoms: _26  and  _27
REMARK   12  A    between atoms: _30  and  _32
REMARK   13  A    between atoms: _32  and  _33
REMARK   14  A    between atoms: _32  and  _35
REMARK   15  A    between atoms: _35  and  _36
REMARK   16  A    between atoms: _39  and  _41
REMARK   17  A    between atoms: _41  and  _42
REMARK   18  A    between atoms: _44  and  _46
REMARK   19  A    between atoms: _46  and  _47
REMARK   20  A    between atoms: _46  and  _49
REMARK   21  A    between atoms: _49  and  _50
REMARK   22  A    between atoms: _52  and  _54
REMARK   23  A    between atoms: _54  and  _55
REMARK   24  A    between atoms: _54  and  _57
REMARK   25  A    between atoms: _57  and  _58
REMARK   26  A    between atoms: _63  and  _65
REMARK   27  A    between atoms: _65  and  _66
REMARK   28  A    between atoms: _65  and  _68
REMARK   29  A    between atoms: _68  and  _69
REMARK   30  A    between atoms: _74  and  _75
REMARK   31  A    between atoms: _77  and  _79
REMARK   32  A    between atoms: _79  and  _80
REMARK   33  A    between atoms: _79  and  _82
REMARK   34  A    between atoms: _82  and  _83
REMARK   35  A    between atoms: _83  and  _84
REMARK   36  A    between atoms: _84  and  _85
REMARK   37  A    between atoms: _94  and  _96
REMARK   38  A    between atoms: _96  and  _97
REMARK   39  A    between atoms: _96  and  _99
REMARK   40  A    between atoms: _99  and  _100
REMARK   41  A    between atoms: _104  and  _105
REMARK   42  A    between atoms: _111  and  _112
REMARK   43  A    between atoms: _117  and  _119
REMARK   44  A    between atoms: _119  and  _120
REMARK   45  A    between atoms: _119  and  _122
REMARK   46  A    between atoms: _122  and  _123
REMARK   47  A    between atoms: _126  and  _128
REMARK   48  A    between atoms: _128  and  _129
REMARK   49  A    between atoms: _132  and  _133
REMARK   50  A    between atoms: _138  and  _140
REMARK   51  A    between atoms: _140  and  _141
REMARK   52  A    between atoms: _140  and  _143
REMARK   53  A    between atoms: _143  and  _144
REMARK   54  A    between atoms: _144  and  _145
REMARK   55  A    between atoms: _150  and  _152
REMARK   56  A    between atoms: _152  and  _153
REMARK   57  A    between atoms: _152  and  _155
REMARK   58  A    between atoms: _155  and  _156
REMARK   59  A    between atoms: _156  and  _157
REMARK   60  A    between atoms: _163  and  _164
REMARK   61  A    between atoms: _169  and  _171
REMARK   62  A    between atoms: _171  and  _172
REMARK   63  A    between atoms: _171  and  _174
REMARK   64  A    between atoms: _174  and  _175
REMARK   65  A    between atoms: _178  and  _180
REMARK   66  A    between atoms: _180  and  _181
REMARK   67  A    between atoms: _180  and  _183
REMARK   68  A    between atoms: _183  and  _184
REMARK   69  A    between atoms: _189  and  _190
REMARK   70  A    between atoms: _192  and  _194
REMARK   71  A    between atoms: _194  and  _195
REMARK   72  A    between atoms: _194  and  _197
REMARK   73  A    between atoms: _197  and  _198
REMARK   74  A    between atoms: _201  and  _203
REMARK   75  A    between atoms: _203  and  _204
REMARK   76  A    between atoms: _203  and  _206
REMARK   77  A    between atoms: _206  and  _207
REMARK   78  A    between atoms: _212  and  _214
REMARK   79  A    between atoms: _214  and  _215
REMARK   80  A    between atoms: _218  and  _220
REMARK   81  A    between atoms: _220  and  _221
REMARK   82  A    between atoms: _220  and  _223
REMARK   83  A    between atoms: _223  and  _224
REMARK   84  A    between atoms: _224  and  _225
REMARK   85  A    between atoms: _228  and  _230
REMARK   86  A    between atoms: _230  and  _231
REMARK   87  A    between atoms: _230  and  _233
REMARK   88  A    between atoms: _233  and  _234
REMARK   89  A    between atoms: _237  and  _239
REMARK   90  A    between atoms: _239  and  _240
REMARK   91  A    between atoms: _239  and  _242
REMARK   92  A    between atoms: _242  and  _243
REMARK   93  A    between atoms: _246  and  _248
REMARK   94  A    between atoms: _248  and  _249
REMARK   95  A    between atoms: _248  and  _251
REMARK   96  A    between atoms: _251  and  _252
REMARK   97  A    between atoms: _252  and  _253
REMARK   98  A    between atoms: _258  and  _260
REMARK   99  A    between atoms: _260  and  _261
REMARK  100  A    between atoms: _260  and  _263
REMARK  101  A    between atoms: _263  and  _264
REMARK  102  A    between atoms: _264  and  _265
REMARK  103  A    between atoms: _268  and  _270
REMARK  104  A    between atoms: _270  and  _271
REMARK  105  A    between atoms: _270  and  _273
REMARK  106  A    between atoms: _273  and  _274
REMARK  107  A    between atoms: _274  and  _275
REMARK  108  A    between atoms: _275  and  _276
REMARK  109  A    between atoms: _285  and  _287
REMARK  110  A    between atoms: _287  and  _288
REMARK  111  A    between atoms: _287  and  _290
REMARK  112  A    between atoms: _293  and  _295
REMARK  113  A    between atoms: _295  and  _296
REMARK  114  A    between atoms: _295  and  _298
REMARK  115  A    between atoms: _298  and  _299
REMARK  116  A    between atoms: _299  and  _300
REMARK  117  A    between atoms: _300  and  _301
REMARK  118  A    between atoms: _310  and  _312
REMARK  119  A    between atoms: _312  and  _313
REMARK  120  A    between atoms: _312  and  _315
REMARK  121  A    between atoms: _315  and  _316
REMARK  122  A    between atoms: _316  and  _317
REMARK  123  A    between atoms: _317  and  _318
REMARK  124  A    between atoms: _318  and  _319
REMARK  125  A    between atoms: _323  and  _325
REMARK  126  A    between atoms: _325  and  _326
REMARK  127  A    between atoms: _329  and  _331
REMARK  128  A    between atoms: _331  and  _332
REMARK  129  A    between atoms: _331  and  _334
REMARK  130  A    between atoms: _334  and  _335
REMARK  131  A    between atoms: _335  and  _336
REMARK  132  A    between atoms: _339  and  _341
REMARK  133  A    between atoms: _341  and  _342
REMARK  134  A    between atoms: _341  and  _344
REMARK  135  A    between atoms: _344  and  _345
REMARK  136  A    between atoms: _345  and  _346
REMARK  137  A    between atoms: _346  and  _347
REMARK  138  A    between atoms: _356  and  _358
REMARK  139  A    between atoms: _358  and  _359
REMARK  140  A    between atoms: _358  and  _361
REMARK  141  A    between atoms: _361  and  _362
REMARK  142  A    between atoms: _372  and  _374
REMARK  143  A    between atoms: _374  and  _375
REMARK  144  A    between atoms: _378  and  _379
REMARK  145  A    between atoms: _384  and  _386
REMARK  146  A    between atoms: _386  and  _387
REMARK  147  A    between atoms: _386  and  _389
REMARK  148  A    between atoms: _389  and  _390
REMARK  149  A    between atoms: _390  and  _391
REMARK  150  A    between atoms: _391  and  _392
REMARK  151  A    between atoms: _401  and  _403
REMARK  152  A    between atoms: _403  and  _404
REMARK  153  A    between atoms: _403  and  _406
REMARK  154  A    between atoms: _406  and  _407
REMARK  155  A    between atoms: _410  and  _412
REMARK  156  A    between atoms: _412  and  _413
REMARK  157  A    between atoms: _412  and  _415
REMARK  158  A    between atoms: _415  and  _416
REMARK  159  A    between atoms: _419  and  _421
REMARK  160  A    between atoms: _421  and  _422
REMARK  161  A    between atoms: _421  and  _424
REMARK  162  A    between atoms: _424  and  _425
REMARK  163  A    between atoms: _428  and  _430
REMARK  164  A    between atoms: _430  and  _431
REMARK  165  A    between atoms: _430  and  _433
REMARK  166  A    between atoms: _433  and  _434
REMARK  167  A    between atoms: _437  and  _439
REMARK  168  A    between atoms: _439  and  _440
REMARK  169  A    between atoms: _439  and  _442
REMARK  170  A    between atoms: _442  and  _443
REMARK  171  A    between atoms: _446  and  _448
REMARK  172  A    between atoms: _448  and  _449
REMARK  173  A    between atoms: _448  and  _451
REMARK  174  A    between atoms: _451  and  _452
REMARK  175  A    between atoms: _452  and  _453
REMARK  176  A    between atoms: _455  and  _457
REMARK  177  A    between atoms: _457  and  _458
REMARK  178  A    between atoms: _457  and  _460
REMARK  179  A    between atoms: _460  and  _461
REMARK  180  A    between atoms: _464  and  _466
REMARK  181  A    between atoms: _466  and  _467
REMARK  182  A    between atoms: _466  and  _469
REMARK  183  A    between atoms: _469  and  _470
REMARK  184  A    between atoms: _476  and  _478
REMARK  185  A    between atoms: _478  and  _479
REMARK  186  A    between atoms: _478  and  _481
REMARK  187  A    between atoms: _481  and  _482
REMARK  188  A    between atoms: _485  and  _487
REMARK  189  A    between atoms: _487  and  _488
REMARK  190  A    between atoms: _487  and  _490
REMARK  191  A    between atoms: _490  and  _491
REMARK  192  A    between atoms: _496  and  _498
REMARK  193  A    between atoms: _498  and  _499
REMARK  194  A    between atoms: _498  and  _501
REMARK  195  A    between atoms: _501  and  _502
REMARK  196  A    between atoms: _505  and  _507
REMARK  197  A    between atoms: _507  and  _508
REMARK  198  A    between atoms: _507  and  _510
REMARK  199  A    between atoms: _510  and  _511
REMARK  200  A    between atoms: _511  and  _512
REMARK  201  A    between atoms: _515  and  _517
REMARK  202  A    between atoms: _517  and  _518
REMARK  203  A    between atoms: _517  and  _520
REMARK  204  A    between atoms: _520  and  _521
REMARK  205  A    between atoms: _521  and  _522
REMARK  206  A    between atoms: _522  and  _523
REMARK  207  A    between atoms: _532  and  _534
REMARK  208  A    between atoms: _534  and  _535
REMARK  209  A    between atoms: _534  and  _537
REMARK  210  A    between atoms: _537  and  _538
REMARK  211  A    between atoms: _541  and  _543
REMARK  212  A    between atoms: _543  and  _544
REMARK  213  A    between atoms: _543  and  _546
REMARK  214  A    between atoms: _546  and  _547
REMARK  215  A    between atoms: _550  and  _552
REMARK  216  A    between atoms: _552  and  _553
REMARK  217  A    between atoms: _552  and  _555
REMARK  218  A    between atoms: _559  and  _560
REMARK  219  A    between atoms: _565  and  _567
REMARK  220  A    between atoms: _567  and  _568
REMARK  221  A    between atoms: _567  and  _570
REMARK  222  A    between atoms: _570  and  _571
REMARK  223  A    between atoms: _576  and  _578
REMARK  224  A    between atoms: _578  and  _579
REMARK  225  A    between atoms: _578  and  _581
REMARK  226  A    between atoms: _581  and  _582
REMARK  227  A    between atoms: _587  and  _588
REMARK  228  A    between atoms: _590  and  _592
REMARK  229  A    between atoms: _592  and  _593
REMARK  230  A    between atoms: _592  and  _595
REMARK  231  A    between atoms: _595  and  _596
REMARK  232  A    between atoms: _599  and  _601
REMARK  233  A    between atoms: _601  and  _602
REMARK  234  A    between atoms: _601  and  _604
REMARK  235  A    between atoms: _604  and  _605
REMARK  236  A    between atoms: _605  and  _606
REMARK  237  A    between atoms: _608  and  _610
REMARK  238  A    between atoms: _610  and  _611
REMARK  239  A    between atoms: _610  and  _613
REMARK  240  A    between atoms: _613  and  _614
REMARK  241  A    between atoms: _614  and  _615
REMARK  242  A    between atoms: _615  and  _616
REMARK  243  A    between atoms: _625  and  _627
REMARK  244  A    between atoms: _627  and  _628
REMARK  245  A    between atoms: _630  and  _632
REMARK  246  A    between atoms: _632  and  _633
REMARK  247  A    between atoms: _632  and  _635
REMARK  248  A    between atoms: _635  and  _636
REMARK  249  A    between atoms: _642  and  _644
REMARK  250  A    between atoms: _644  and  _645
REMARK  251  A    between atoms: _644  and  _647
REMARK  252  A    between atoms: _647  and  _648
REMARK  253  A    between atoms: _648  and  _649
REMARK  254  A    between atoms: _651  and  _653
REMARK  255  A    between atoms: _653  and  _654
REMARK  256  A    between atoms: _653  and  _656
REMARK  257  A    between atoms: _656  and  _657
REMARK                            x       y       z     vdW  Elec       q    Type
REMARK                         _______ _______ _______ _____ _____    ______ ____
ROOT
ATOM      1  C   GLY A   2       3.206  28.454   9.169  0.00  0.00    +0.243 C 
ATOM      2  N   PHE A   3       3.942  28.018  10.194  0.00  0.00    -0.297 N 
ATOM      3  H   PHE A   3       3.860  28.444  11.139  0.00  0.00    +0.150 HD
ATOM      4  O   GLY A   2       3.220  27.921   8.055  0.00  0.00    -0.273 OA
ENDROOT
BRANCH   2   5
ATOM      5  CA  PHE A   3       4.872  26.912   9.933  0.00  0.00    +0.153 C 
BRANCH   5   6
ATOM      6  C   PHE A   3       4.048  25.641   9.771  0.00  0.00    +0.241 C 
ATOM      7  N   MET A   4       2.824  25.702  10.297  0.00  0.00    -0.298 N 
ATOM      8  H   MET A   4       2.515  26.528  10.848  0.00  0.00    +0.150 HD
ATOM      9  O   PHE A   3       4.482  24.653   9.189  0.00  0.00    -0.273 OA
BRANCH   7  10
ATOM     10  CA  MET A   4       1.932  24.564  10.071  0.00  0.00    +0.138 C 
BRANCH  10  11
ATOM     11  C   MET A   4       1.124  24.790   8.800  0.00  0.00    +0.227 C 
ATOM     12  O   MET A   4       0.995  23.872   7.985  0.00  0.00    -0.286 OA
ENDBRANCH  10  11
BRANCH  10  13
ATOM     13  CB  MET A   4       1.039  24.360  11.279  0.00  0.00    +0.039 C 
BRANCH  13  14
ATOM     14  CG  MET A   4       1.639  23.545  12.412  0.00  0.00    +0.060 C 
BRANCH  14  15
ATOM     15  SD  MET A   4       0.360  23.113  13.617  0.00  0.00    -0.139 S 
ATOM     16  CE  MET A   4       1.021  23.888  15.092  0.00  0.00    +0.069 C 
ENDBRANCH  14  15
ENDBRANCH  13  14
ENDBRANCH  10  13
ENDBRANCH   7  10
ENDBRANCH   5   6
BRANCH   5  17
ATOM     17  CB  PHE A   3       5.924  26.793  11.014  0.00  0.00    +0.055 C 
BRANCH  17  18
ATOM     18  CG  PHE A   3       5.428  26.603  12.432  0.00  0.00    -0.020 A 
ATOM     19  CD2 PHE A   3       5.343  27.692  13.289  0.00  0.00    -0.004 A 
ATOM     20  CE2 PHE A   3       4.902  27.535  14.586  0.00  0.00    -0.000 A 
ATOM     21  CZ  PHE A   3       4.533  26.282  15.041  0.00  0.00    -0.000 A 
ATOM     22  CE1 PHE A   3       4.575  25.197  14.184  0.00  0.00    -0.000 A 
ATOM     23  CD1 PHE A   3       5.042  25.354  12.898  0.00  0.00    -0.004 A 
ENDBRANCH  17  18
ENDBRANCH   5  17
ENDBRANCH   2   5
BRANCH   1  24
ATOM     24  CA  GLY A   2       2.344  29.675   9.427  0.00  0.00    +0.176 C 
BRANCH  24  26
ATOM     25  C   ARG A   1       1.173  28.840  11.356  0.00  0.00    +0.238 C 
ATOM     26  N   GLY A   2       1.940  29.800  10.816  0.00  0.00    -0.296 N 
ATOM     27  H   GLY A   2       2.240  30.619  11.383  0.00  0.00    +0.150 HD
ATOM     28  O   ARG A   1       0.893  27.823  10.725  0.00  0.00    -0.274 OA
BRANCH  25  29
ATOM     29  CA  ARG A   1       0.714  29.117  12.769  0.00  0.00    +0.145 C 
BRANCH  29  30
ATOM     30  N   ARG A   1      -0.685  29.531  12.880  0.00  0.00    -0.238 NA
ATOM     31  H   ARG A   1      -1.429  28.942  12.455  0.00  0.00    +0.142 HD
ENDBRANCH  29  30
BRANCH  29  32
ATOM     32  CB  ARG A   1       0.928  27.884  13.663  0.00  0.00    +0.030 C 
BRANCH  32  33
ATOM     33  CG  ARG A   1       0.582  28.196  15.106  0.00  0.00    +0.045 C 
BRANCH  33  34
ATOM     34  CD  ARG A   1       0.942  27.047  16.041  0.00  0.00    +0.174 C 
BRANCH  34  35
ATOM     35  NE  ARG A   1       0.526  27.369  17.402  0.00  0.00    -0.265 N 
ATOM     36  CZ  ARG A   1       0.840  26.719  18.508  0.00  0.00    +0.342 C 
ATOM     37  NH2 ARG A   1       0.354  27.183  19.655  0.00  0.00    -0.292 N 
ATOM     38 HH21 ARG A   1       0.578  26.700  20.548  0.00  0.00    +0.255 HD
ATOM     39 HH22 ARG A   1      -0.250  28.029  19.659  0.00  0.00    +0.255 HD
ATOM     40  NH1 ARG A   1       1.614  25.637  18.496  0.00  0.00    -0.292 N 
ATOM     41 HH11 ARG A   1       1.841  25.150  19.386  0.00  0.00    +0.255 HD
ATOM     42 HH12 ARG A   1       1.992  25.278  17.596  0.00  0.00    +0.255 HD
ATOM     43  HE  ARG A   1      -0.086  28.203  17.514  0.00  0.00    +0.259 HD
ENDBRANCH  34  35
ENDBRANCH  33  34
ENDBRANCH  32  33
ENDBRANCH  29  32
ENDBRANCH  25  29
ENDBRANCH  24  26
ENDBRANCH   1  24
TORSDOF 17
REMARK  Name = ../refined-set-2016/1ex8/1ex8_pocket.pdb
REMARK  257 active torsions:
REMARK  status: ('A' for Active; 'I' for Inactive)
REMARK    1  A    between atoms: _1  and  _3
REMARK    2  A    between atoms: _3  and  _4
REMARK    3  A    between atoms: _3  and  _6
REMARK    4  A    between atoms: _6  and  _7
REMARK    5  A    between atoms: _12  and  _13
REMARK    6  A    between atoms: _15  and  _17
REMARK    7  A    between atoms: _17  and  _18
REMARK    8  A    between atoms: _17  and  _20
REMARK    9  A    between atoms: _20  and  _21
REMARK   10  A    between atoms: _24  and  _26
REMARK   11  A    between atoms: _26  and  _27
REMARK   12  A    between atoms: _30  and  _32
REMARK   13  A    between atoms: _32  and  _33
REMARK   14  A    between atoms: _32  and  _35
REMARK   15  A    between atoms: _35  and  _36
REMARK   16  A    between atoms: _39  and  _41
REMARK   17  A    between atoms: _41  and  _42
REMARK   18  A    between atoms: _44  and  _46
REMARK   19  A    between atoms: _46  and  _47
REMARK   20  A    between atoms: _46  and  _49
REMARK   21  A    between atoms: _49  and  _50
REMARK   22  A    between atoms: _52  and  _54
REMARK   23  A    between atoms: _54  and  _55
REMARK   24  A    between atoms: _54  and  _57
REMARK   25  A    between atoms: _57  and  _58
REMARK   26  A    between atoms: _63  and  _65
REMARK   27  A    between atoms: _65  and  _66
REMARK   28  A    between atoms: _65  and  _68
REMARK   29  A    between atoms: _68  and  _69
REMARK   30  A    between atoms: _74  and  _75
REMARK   31  A    between atoms: _77  and  _79
REMARK   32  A    between atoms: _79  and  _80
REMARK   33  A    between atoms: _79  and  _82
REMARK   34  A    between atoms: _82  and  _83
REMARK   35  A    between atoms: _83  and  _84
REMARK   36  A    between atoms: _84  and  _85
REMARK   37  A    between atoms: _94  and  _96
REMARK   38  A    between atoms: _96  and  _97
REMARK   39  A    between atoms: _96  and  _99
REMARK   40  A    between atoms: _99  and  _100
REMARK   41  A    between atoms: _104  and  _105
REMARK   42  A    between atoms: _111  and  _112
REMARK   43  A    between atoms: _117  and  _119
REMARK   44  A    between atoms: _119  and  _120
REMARK   45  A    between atoms: _119  and  _122
REMARK   46  A    between atoms: _122  and  _123
REMARK   47  A    between atoms: _126  and  _128
REMARK   48  A    between atoms: _128  and  _129
REMARK   49  A    between atoms: _132  and  _133
REMARK   50  A    between atoms: _138  and  _140
REMARK   51  A    between atoms: _140  and  _141
REMARK   52  A    between atoms: _140  and  _143
REMARK   53  A    between atoms: _143  and  _144
REMARK   54  A    between atoms: _144  and  _145
REMARK   55  A    between atoms: _150  and  _152
REMARK   56  A    between atoms: _152  and  _153
REMARK   57  A    between atoms: _152  and  _155
REMARK   58  A    between atoms: _155  and  _156
REMARK   59  A    between atoms: _156  and  _157
REMARK   60  A    between atoms: _163  and  _164
REMARK   61  A    between atoms: _169  and  _171
REMARK   62  A    between atoms: _171  and  _172
REMARK   63  A    between atoms: _171  and  _174
REMARK   64  A    between atoms: _174  and  _175
REMARK   65  A    between atoms: _178  and  _180
REMARK   66  A    between atoms: _180  and  _181
REMARK   67  A    between atoms: _180  and  _183
REMARK   68  A    between atoms: _183  and  _184
REMARK   69  A    between atoms: _189  and  _190
REMARK   70  A    between atoms: _192  and  _194
REMARK   71  A    between atoms: _194  and  _195
REMARK   72  A    between atoms: _194  and  _197
REMARK   73  A    between atoms: _197  and  _198
REMARK   74  A    between atoms: _201  and  _203
REMARK   75  A    between atoms: _203  and  _204
REMARK   76  A    between atoms: _203  and  _206
REMARK   77  A    between atoms: _206  and  _207
REMARK   78  A    between atoms: _212  and  _214
REMARK   79  A    between atoms: _214  and  _215
REMARK   80  A    between atoms: _218  and  _220
REMARK   81  A    between atoms: _220  and  _221
REMARK   82  A    between atoms: _220  and  _223
REMARK   83  A    between atoms: _223  and  _224
REMARK   84  A    between atoms: _224  and  _225
REMARK   85  A    between atoms: _228  and  _230
REMARK   86  A    between atoms: _230  and  _231
REMARK   87  A    between atoms: _230  and  _233
REMARK   88  A    between atoms: _233  and  _234
REMARK   89  A    between atoms: _237  and  _239
REMARK   90  A    between atoms: _239  and  _240
REMARK   91  A    between atoms: _239  and  _242
REMARK   92  A    between atoms: _242  and  _243
REMARK   93  A    between atoms: _246  and  _248
REMARK   94  A    between atoms: _248  and  _249
REMARK   95  A    between atoms: _248  and  _251
REMARK   96  A    between atoms: _251  and  _252
REMARK   97  A    between atoms: _252  and  _253
REMARK   98  A    between atoms: _258  and  _260
REMARK   99  A    between atoms: _260  and  _261
REMARK  100  A    between atoms: _260  and  _263
REMARK  101  A    between atoms: _263  and  _264
REMARK  102  A    between atoms: _264  and  _265
REMARK  103  A    between atoms: _268  and  _270
REMARK  104  A    between atoms: _270  and  _271
REMARK  105  A    between atoms: _270  and  _273
REMARK  106  A    between atoms: _273  and  _274
REMARK  107  A    between atoms: _274  and  _275
REMARK  108  A    between atoms: _275  and  _276
REMARK  109  A    between atoms: _285  and  _287
REMARK  110  A    between atoms: _287  and  _288
REMARK  111  A    between atoms: _287  and  _290
REMARK  112  A    between atoms: _293  and  _295
REMARK  113  A    between atoms: _295  and  _296
REMARK  114  A    between atoms: _295  and  _298
REMARK  115  A    between atoms: _298  and  _299
REMARK  116  A    between atoms: _299  and  _300
REMARK  117  A    between atoms: _300  and  _301
REMARK  118  A    between atoms: _310  and  _312
REMARK  119  A    between atoms: _312  and  _313
REMARK  120  A    between atoms: _312  and  _315
REMARK  121  A    between atoms: _315  and  _316
REMARK  122  A    between atoms: _316  and  _317
REMARK  123  A    between atoms: _317  and  _318
REMARK  124  A    between atoms: _318  and  _319
REMARK  125  A    between atoms: _323  and  _325
REMARK  126  A    between atoms: _325  and  _326
REMARK  127  A    between atoms: _329  and  _331
REMARK  128  A    between atoms: _331  and  _332
REMARK  129  A    between atoms: _331  and  _334
REMARK  130  A    between atoms: _334  and  _335
REMARK  131  A    between atoms: _335  and  _336
REMARK  132  A    between atoms: _339  and  _341
REMARK  133  A    between atoms: _341  and  _342
REMARK  134  A    between atoms: _341  and  _344
REMARK  135  A    between atoms: _344  and  _345
REMARK  136  A    between atoms: _345  and  _346
REMARK  137  A    between atoms: _346  and  _347
REMARK  138  A    between atoms: _356  and  _358
REMARK  139  A    between atoms: _358  and  _359
REMARK  140  A    between atoms: _358  and  _361
REMARK  141  A    between atoms: _361  and  _362
REMARK  142  A    between atoms: _372  and  _374
REMARK  143  A    between atoms: _374  and  _375
REMARK  144  A    between atoms: _378  and  _379
REMARK  145  A    between atoms: _384  and  _386
REMARK  146  A    between atoms: _386  and  _387
REMARK  147  A    between atoms: _386  and  _389
REMARK  148  A    between atoms: _389  and  _390
REMARK  149  A    between atoms: _390  and  _391
REMARK  150  A    between atoms: _391  and  _392
REMARK  151  A    between atoms: _401  and  _403
REMARK  152  A    between atoms: _403  and  _404
REMARK  153  A    between atoms: _403  and  _406
REMARK  154  A    between atoms: _406  and  _407
REMARK  155  A    between atoms: _410  and  _412
REMARK  156  A    between atoms: _412  and  _413
REMARK  157  A    between atoms: _412  and  _415
REMARK  158  A    between atoms: _415  and  _416
REMARK  159  A    between atoms: _419  and  _421
REMARK  160  A    between atoms: _421  and  _422
REMARK  161  A    between atoms: _421  and  _424
REMARK  162  A    between atoms: _424  and  _425
REMARK  163  A    between atoms: _428  and  _430
REMARK  164  A    between atoms: _430  and  _431
REMARK  165  A    between atoms: _430  and  _433
REMARK  166  A    between atoms: _433  and  _434
REMARK  167  A    between atoms: _437  and  _439
REMARK  168  A    between atoms: _439  and  _440
REMARK  169  A    between atoms: _439  and  _442
REMARK  170  A    between atoms: _442  and  _443
REMARK  171  A    between atoms: _446  and  _448
REMARK  172  A    between atoms: _448  and  _449
REMARK  173  A    between atoms: _448  and  _451
REMARK  174  A    between atoms: _451  and  _452
REMARK  175  A    between atoms: _452  and  _453
REMARK  176  A    between atoms: _455  and  _457
REMARK  177  A    between atoms: _457  and  _458
REMARK  178  A    between atoms: _457  and  _460
REMARK  179  A    between atoms: _460  and  _461
REMARK  180  A    between atoms: _464  and  _466
REMARK  181  A    between atoms: _466  and  _467
REMARK  182  A    between atoms: _466  and  _469
REMARK  183  A    between atoms: _469  and  _470
REMARK  184  A    between atoms: _476  and  _478
REMARK  185  A    between atoms: _478  and  _479
REMARK  186  A    between atoms: _478  and  _481
REMARK  187  A    between atoms: _481  and  _482
REMARK  188  A    between atoms: _485  and  _487
REMARK  189  A    between atoms: _487  and  _488
REMARK  190  A    between atoms: _487  and  _490
REMARK  191  A    between atoms: _490  and  _491
REMARK  192  A    between atoms: _496  and  _498
REMARK  193  A    between atoms: _498  and  _499
REMARK  194  A    between atoms: _498  and  _501
REMARK  195  A    between atoms: _501  and  _502
REMARK  196  A    between atoms: _505  and  _507
REMARK  197  A    between atoms: _507  and  _508
REMARK  198  A    between atoms: _507  and  _510
REMARK  199  A    between atoms: _510  and  _511
REMARK  200  A    between atoms: _511  and  _512
REMARK  201  A    between atoms: _515  and  _517
REMARK  202  A    between atoms: _517  and  _518
REMARK  203  A    between atoms: _517  and  _520
REMARK  204  A    between atoms: _520  and  _521
REMARK  205  A    between atoms: _521  and  _522
REMARK  206  A    between atoms: _522  and  _523
REMARK  207  A    between atoms: _532  and  _534
REMARK  208  A    between atoms: _534  and  _535
REMARK  209  A    between atoms: _534  and  _537
REMARK  210  A    between atoms: _537  and  _538
REMARK  211  A    between atoms: _541  and  _543
REMARK  212  A    between atoms: _543  and  _544
REMARK  213  A    between atoms: _543  and  _546
REMARK  214  A    between atoms: _546  and  _547
REMARK  215  A    between atoms: _550  and  _552
REMARK  216  A    between atoms: _552  and  _553
REMARK  217  A    between atoms: _552  and  _555
REMARK  218  A    between atoms: _559  and  _560
REMARK  219  A    between atoms: _565  and  _567
REMARK  220  A    between atoms: _567  and  _568
REMARK  221  A    between atoms: _567  and  _570
REMARK  222  A    between atoms: _570  and  _571
REMARK  223  A    between atoms: _576  and  _578
REMARK  224  A    between atoms: _578  and  _579
REMARK  225  A    between atoms: _578  and  _581
REMARK  226  A    between atoms: _581  and  _582
REMARK  227  A    between atoms: _587  and  _588
REMARK  228  A    between atoms: _590  and  _592
REMARK  229  A    between atoms: _592  and  _593
REMARK  230  A    between atoms: _592  and  _595
REMARK  231  A    between atoms: _595  and  _596
REMARK  232  A    between atoms: _599  and  _601
REMARK  233  A    between atoms: _601  and  _602
REMARK  234  A    between atoms: _601  and  _604
REMARK  235  A    between atoms: _604  and  _605
REMARK  236  A    between atoms: _605  and  _606
REMARK  237  A    between atoms: _608  and  _610
REMARK  238  A    between atoms: _610  and  _611
REMARK  239  A    between atoms: _610  and  _613
REMARK  240  A    between atoms: _613  and  _614
REMARK  241  A    between atoms: _614  and  _615
REMARK  242  A    between atoms: _615  and  _616
REMARK  243  A    between atoms: _625  and  _627
REMARK  244  A    between atoms: _627  and  _628
REMARK  245  A    between atoms: _630  and  _632
REMARK  246  A    between atoms: _632  and  _633
REMARK  247  A    between atoms: _632  and  _635
REMARK  248  A    between atoms: _635  and  _636
REMARK  249  A    between atoms: _642  and  _644
REMARK  250  A    between atoms: _644  and  _645
REMARK  251  A    between atoms: _644  and  _647
REMARK  252  A    between atoms: _647  and  _648
REMARK  253  A    between atoms: _648  and  _649
REMARK  254  A    between atoms: _651  and  _653
REMARK  255  A    between atoms: _653  and  _654
REMARK  256  A    between atoms: _653  and  _656
REMARK  257  A    between atoms: _656  and  _657
REMARK                            x       y       z     vdW  Elec       q    Type
REMARK                         _______ _______ _______ _____ _____    ______ ____
ROOT
ATOM      1  CA  LEU A   1       8.477  30.661   4.502  0.00  0.00    +0.133 C 
ENDROOT
BRANCH   1   2
ATOM      2  N   LEU A   1       7.465  31.588   3.997  0.00  0.00    -0.239 NA
ATOM      3  H   LEU A   1       6.715  31.264   3.354  0.00  0.00    +0.142 HD
ENDBRANCH   1   2
BRANCH   1   4
ATOM      4  C   LEU A   1       9.702  30.654   3.597  0.00  0.00    +0.224 C 
ATOM      5  O   LEU A   1       9.636  30.688   2.369  0.00  0.00    -0.287 OA
ENDBRANCH   1   4
BRANCH   1   6
ATOM      6  CB  LEU A   1       7.894  29.253   4.648  0.00  0.00    +0.025 C 
BRANCH   6   7
ATOM      7  CG  LEU A   1       6.741  29.066   5.631  0.00  0.00    +0.002 C 
ATOM      8  CD2 LEU A   1       7.040  29.667   6.995  0.00  0.00    +0.000 C 
ATOM      9  CD1 LEU A   1       6.410  27.587   5.802  0.00  0.00    +0.000 C 
ENDBRANCH   6   7
ENDBRANCH   1   6
TORSDOF 4
REMARK  Name = ../refined-set-2016/1ex8/1ex8_pocket.pdb
REMARK  257 active torsions:
REMARK  status: ('A' for Active; 'I' for Inactive)
REMARK    1  A    between atoms: _1  and  _3
REMARK    2  A    between atoms: _3  and  _4
REMARK    3  A    between atoms: _3  and  _6
REMARK    4  A    between atoms: _6  and  _7
REMARK    5  A    between atoms: _12  and  _13
REMARK    6  A    between atoms: _15  and  _17
REMARK    7  A    between atoms: _17  and  _18
REMARK    8  A    between atoms: _17  and  _20
REMARK    9  A    between atoms: _20  and  _21
REMARK   10  A    between atoms: _24  and  _26
REMARK   11  A    between atoms: _26  and  _27
REMARK   12  A    between atoms: _30  and  _32
REMARK   13  A    between atoms: _32  and  _33
REMARK   14  A    between atoms: _32  and  _35
REMARK   15  A    between atoms: _35  and  _36
REMARK   16  A    between atoms: _39  and  _41
REMARK   17  A    between atoms: _41  and  _42
REMARK   18  A    between atoms: _44  and  _46
REMARK   19  A    between atoms: _46  and  _47
REMARK   20  A    between atoms: _46  and  _49
REMARK   21  A    between atoms: _49  and  _50
REMARK   22  A    between atoms: _52  and  _54
REMARK   23  A    between atoms: _54  and  _55
REMARK   24  A    between atoms: _54  and  _57
REMARK   25  A    between atoms: _57  and  _58
REMARK   26  A    between atoms: _63  and  _65
REMARK   27  A    between atoms: _65  and  _66
REMARK   28  A    between atoms: _65  and  _68
REMARK   29  A    between atoms: _68  and  _69
REMARK   30  A    between atoms: _74  and  _75
REMARK   31  A    between atoms: _77  and  _79
REMARK   32  A    between atoms: _79  and  _80
REMARK   33  A    between atoms: _79  and  _82
REMARK   34  A    between atoms: _82  and  _83
REMARK   35  A    between atoms: _83  and  _84
REMARK   36  A    between atoms: _84  and  _85
REMARK   37  A    between atoms: _94  and  _96
REMARK   38  A    between atoms: _96  and  _97
REMARK   39  A    between atoms: _96  and  _99
REMARK   40  A    between atoms: _99  and  _100
REMARK   41  A    between atoms: _104  and  _105
REMARK   42  A    between atoms: _111  and  _112
REMARK   43  A    between atoms: _117  and  _119
REMARK   44  A    between atoms: _119  and  _120
REMARK   45  A    between atoms: _119  and  _122
REMARK   46  A    between atoms: _122  and  _123
REMARK   47  A    between atoms: _126  and  _128
REMARK   48  A    between atoms: _128  and  _129
REMARK   49  A    between atoms: _132  and  _133
REMARK   50  A    between atoms: _138  and  _140
REMARK   51  A    between atoms: _140  and  _141
REMARK   52  A    between atoms: _140  and  _143
REMARK   53  A    between atoms: _143  and  _144
REMARK   54  A    between atoms: _144  and  _145
REMARK   55  A    between atoms: _150  and  _152
REMARK   56  A    between atoms: _152  and  _153
REMARK   57  A    between atoms: _152  and  _155
REMARK   58  A    between atoms: _155  and  _156
REMARK   59  A    between atoms: _156  and  _157
REMARK   60  A    between atoms: _163  and  _164
REMARK   61  A    between atoms: _169  and  _171
REMARK   62  A    between atoms: _171  and  _172
REMARK   63  A    between atoms: _171  and  _174
REMARK   64  A    between atoms: _174  and  _175
REMARK   65  A    between atoms: _178  and  _180
REMARK   66  A    between atoms: _180  and  _181
REMARK   67  A    between atoms: _180  and  _183
REMARK   68  A    between atoms: _183  and  _184
REMARK   69  A    between atoms: _189  and  _190
REMARK   70  A    between atoms: _192  and  _194
REMARK   71  A    between atoms: _194  and  _195
REMARK   72  A    between atoms: _194  and  _197
REMARK   73  A    between atoms: _197  and  _198
REMARK   74  A    between atoms: _201  and  _203
REMARK   75  A    between atoms: _203  and  _204
REMARK   76  A    between atoms: _203  and  _206
REMARK   77  A    between atoms: _206  and  _207
REMARK   78  A    between atoms: _212  and  _214
REMARK   79  A    between atoms: _214  and  _215
REMARK   80  A    between atoms: _218  and  _220
REMARK   81  A    between atoms: _220  and  _221
REMARK   82  A    between atoms: _220  and  _223
REMARK   83  A    between atoms: _223  and  _224
REMARK   84  A    between atoms: _224  and  _225
REMARK   85  A    between atoms: _228  and  _230
REMARK   86  A    between atoms: _230  and  _231
REMARK   87  A    between atoms: _230  and  _233
REMARK   88  A    between atoms: _233  and  _234
REMARK   89  A    between atoms: _237  and  _239
REMARK   90  A    between atoms: _239  and  _240
REMARK   91  A    between atoms: _239  and  _242
REMARK   92  A    between atoms: _242  and  _243
REMARK   93  A    between atoms: _246  and  _248
REMARK   94  A    between atoms: _248  and  _249
REMARK   95  A    between atoms: _248  and  _251
REMARK   96  A    between atoms: _251  and  _252
REMARK   97  A    between atoms: _252  and  _253
REMARK   98  A    between atoms: _258  and  _260
REMARK   99  A    between atoms: _260  and  _261
REMARK  100  A    between atoms: _260  and  _263
REMARK  101  A    between atoms: _263  and  _264
REMARK  102  A    between atoms: _264  and  _265
REMARK  103  A    between atoms: _268  and  _270
REMARK  104  A    between atoms: _270  and  _271
REMARK  105  A    between atoms: _270  and  _273
REMARK  106  A    between atoms: _273  and  _274
REMARK  107  A    between atoms: _274  and  _275
REMARK  108  A    between atoms: _275  and  _276
REMARK  109  A    between atoms: _285  and  _287
REMARK  110  A    between atoms: _287  and  _288
REMARK  111  A    between atoms: _287  and  _290
REMARK  112  A    between atoms: _293  and  _295
REMARK  113  A    between atoms: _295  and  _296
REMARK  114  A    between atoms: _295  and  _298
REMARK  115  A    between atoms: _298  and  _299
REMARK  116  A    between atoms: _299  and  _300
REMARK  117  A    between atoms: _300  and  _301
REMARK  118  A    between atoms: _310  and  _312
REMARK  119  A    between atoms: _312  and  _313
REMARK  120  A    between atoms: _312  and  _315
REMARK  121  A    between atoms: _315  and  _316
REMARK  122  A    between atoms: _316  and  _317
REMARK  123  A    between atoms: _317  and  _318
REMARK  124  A    between atoms: _318  and  _319
REMARK  125  A    between atoms: _323  and  _325
REMARK  126  A    between atoms: _325  and  _326
REMARK  127  A    between atoms: _329  and  _331
REMARK  128  A    between atoms: _331  and  _332
REMARK  129  A    between atoms: _331  and  _334
REMARK  130  A    between atoms: _334  and  _335
REMARK  131  A    between atoms: _335  and  _336
REMARK  132  A    between atoms: _339  and  _341
REMARK  133  A    between atoms: _341  and  _342
REMARK  134  A    between atoms: _341  and  _344
REMARK  135  A    between atoms: _344  and  _345
REMARK  136  A    between atoms: _345  and  _346
REMARK  137  A    between atoms: _346  and  _347
REMARK  138  A    between atoms: _356  and  _358
REMARK  139  A    between atoms: _358  and  _359
REMARK  140  A    between atoms: _358  and  _361
REMARK  141  A    between atoms: _361  and  _362
REMARK  142  A    between atoms: _372  and  _374
REMARK  143  A    between atoms: _374  and  _375
REMARK  144  A    between atoms: _378  and  _379
REMARK  145  A    between atoms: _384  and  _386
REMARK  146  A    between atoms: _386  and  _387
REMARK  147  A    between atoms: _386  and  _389
REMARK  148  A    between atoms: _389  and  _390
REMARK  149  A    between atoms: _390  and  _391
REMARK  150  A    between atoms: _391  and  _392
REMARK  151  A    between atoms: _401  and  _403
REMARK  152  A    between atoms: _403  and  _404
REMARK  153  A    between atoms: _403  and  _406
REMARK  154  A    between atoms: _406  and  _407
REMARK  155  A    between atoms: _410  and  _412
REMARK  156  A    between atoms: _412  and  _413
REMARK  157  A    between atoms: _412  and  _415
REMARK  158  A    between atoms: _415  and  _416
REMARK  159  A    between atoms: _419  and  _421
REMARK  160  A    between atoms: _421  and  _422
REMARK  161  A    between atoms: _421  and  _424
REMARK  162  A    between atoms: _424  and  _425
REMARK  163  A    between atoms: _428  and  _430
REMARK  164  A    between atoms: _430  and  _431
REMARK  165  A    between atoms: _430  and  _433
REMARK  166  A    between atoms: _433  and  _434
REMARK  167  A    between atoms: _437  and  _439
REMARK  168  A    between atoms: _439  and  _440
REMARK  169  A    between atoms: _439  and  _442
REMARK  170  A    between atoms: _442  and  _443
REMARK  171  A    between atoms: _446  and  _448
REMARK  172  A    between atoms: _448  and  _449
REMARK  173  A    between atoms: _448  and  _451
REMARK  174  A    between atoms: _451  and  _452
REMARK  175  A    between atoms: _452  and  _453
REMARK  176  A    between atoms: _455  and  _457
REMARK  177  A    between atoms: _457  and  _458
REMARK  178  A    between atoms: _457  and  _460
REMARK  179  A    between atoms: _460  and  _461
REMARK  180  A    between atoms: _464  and  _466
REMARK  181  A    between atoms: _466  and  _467
REMARK  182  A    between atoms: _466  and  _469
REMARK  183  A    between atoms: _469  and  _470
REMARK  184  A    between atoms: _476  and  _478
REMARK  185  A    between atoms: _478  and  _479
REMARK  186  A    between atoms: _478  and  _481
REMARK  187  A    between atoms: _481  and  _482
REMARK  188  A    between atoms: _485  and  _487
REMARK  189  A    between atoms: _487  and  _488
REMARK  190  A    between atoms: _487  and  _490
REMARK  191  A    between atoms: _490  and  _491
REMARK  192  A    between atoms: _496  and  _498
REMARK  193  A    between atoms: _498  and  _499
REMARK  194  A    between atoms: _498  and  _501
REMARK  195  A    between atoms: _501  and  _502
REMARK  196  A    between atoms: _505  and  _507
REMARK  197  A    between atoms: _507  and  _508
REMARK  198  A    between atoms: _507  and  _510
REMARK  199  A    between atoms: _510  and  _511
REMARK  200  A    between atoms: _511  and  _512
REMARK  201  A    between atoms: _515  and  _517
REMARK  202  A    between atoms: _517  and  _518
REMARK  203  A    between atoms: _517  and  _520
REMARK  204  A    between atoms: _520  and  _521
REMARK  205  A    between atoms: _521  and  _522
REMARK  206  A    between atoms: _522  and  _523
REMARK  207  A    between atoms: _532  and  _534
REMARK  208  A    between atoms: _534  and  _535
REMARK  209  A    between atoms: _534  and  _537
REMARK  210  A    between atoms: _537  and  _538
REMARK  211  A    between atoms: _541  and  _543
REMARK  212  A    between atoms: _543  and  _544
REMARK  213  A    between atoms: _543  and  _546
REMARK  214  A    between atoms: _546  and  _547
REMARK  215  A    between atoms: _550  and  _552
REMARK  216  A    between atoms: _552  and  _553
REMARK  217  A    between atoms: _552  and  _555
REMARK  218  A    between atoms: _559  and  _560
REMARK  219  A    between atoms: _565  and  _567
REMARK  220  A    between atoms: _567  and  _568
REMARK  221  A    between atoms: _567  and  _570
REMARK  222  A    between atoms: _570  and  _571
REMARK  223  A    between atoms: _576  and  _578
REMARK  224  A    between atoms: _578  and  _579
REMARK  225  A    between atoms: _578  and  _581
REMARK  226  A    between atoms: _581  and  _582
REMARK  227  A    between atoms: _587  and  _588
REMARK  228  A    between atoms: _590  and  _592
REMARK  229  A    between atoms: _592  and  _593
REMARK  230  A    between atoms: _592  and  _595
REMARK  231  A    between atoms: _595  and  _596
REMARK  232  A    between atoms: _599  and  _601
REMARK  233  A    between atoms: _601  and  _602
REMARK  234  A    between atoms: _601  and  _604
REMARK  235  A    between atoms: _604  and  _605
REMARK  236  A    between atoms: _605  and  _606
REMARK  237  A    between atoms: _608  and  _610
REMARK  238  A    between atoms: _610  and  _611
REMARK  239  A    between atoms: _610  and  _613
REMARK  240  A    between atoms: _613  and  _614
REMARK  241  A    between atoms: _614  and  _615
REMARK  242  A    between atoms: _615  and  _616
REMARK  243  A    between atoms: _625  and  _627
REMARK  244  A    between atoms: _627  and  _628
REMARK  245  A    between atoms: _630  and  _632
REMARK  246  A    between atoms: _632  and  _633
REMARK  247  A    between atoms: _632  and  _635
REMARK  248  A    between atoms: _635  and  _636
REMARK  249  A    between atoms: _642  and  _644
REMARK  250  A    between atoms: _644  and  _645
REMARK  251  A    between atoms: _644  and  _647
REMARK  252  A    between atoms: _647  and  _648
REMARK  253  A    between atoms: _648  and  _649
REMARK  254  A    between atoms: _651  and  _653
REMARK  255  A    between atoms: _653  and  _654
REMARK  256  A    between atoms: _653  and  _656
REMARK  257  A    between atoms: _656  and  _657
REMARK                            x       y       z     vdW  Elec       q    Type
REMARK                         _______ _______ _______ _____ _____    ______ ____
ROOT
ATOM      1 MG   UNL     1       3.608  19.552  20.800  0.00  0.00    +0.000 Mg
ATOM      2  O   UNL     1       2.028  19.110  20.004  0.00  0.00    +0.000 OA
ATOM      3  O   UNL     1       4.601  18.887  19.225  0.00  0.00    +0.000 OA
ENDROOT
TORSDOF 0
REMARK  Name = ../refined-set-2016/1ex8/1ex8_pocket.pdb
REMARK  257 active torsions:
REMARK  status: ('A' for Active; 'I' for Inactive)
REMARK    1  A    between atoms: _1  and  _3
REMARK    2  A    between atoms: _3  and  _4
REMARK    3  A    between atoms: _3  and  _6
REMARK    4  A    between atoms: _6  and  _7
REMARK    5  A    between atoms: _12  and  _13
REMARK    6  A    between atoms: _15  and  _17
REMARK    7  A    between atoms: _17  and  _18
REMARK    8  A    between atoms: _17  and  _20
REMARK    9  A    between atoms: _20  and  _21
REMARK   10  A    between atoms: _24  and  _26
REMARK   11  A    between atoms: _26  and  _27
REMARK   12  A    between atoms: _30  and  _32
REMARK   13  A    between atoms: _32  and  _33
REMARK   14  A    between atoms: _32  and  _35
REMARK   15  A    between atoms: _35  and  _36
REMARK   16  A    between atoms: _39  and  _41
REMARK   17  A    between atoms: _41  and  _42
REMARK   18  A    between atoms: _44  and  _46
REMARK   19  A    between atoms: _46  and  _47
REMARK   20  A    between atoms: _46  and  _49
REMARK   21  A    between atoms: _49  and  _50
REMARK   22  A    between atoms: _52  and  _54
REMARK   23  A    between atoms: _54  and  _55
REMARK   24  A    between atoms: _54  and  _57
REMARK   25  A    between atoms: _57  and  _58
REMARK   26  A    between atoms: _63  and  _65
REMARK   27  A    between atoms: _65  and  _66
REMARK   28  A    between atoms: _65  and  _68
REMARK   29  A    between atoms: _68  and  _69
REMARK   30  A    between atoms: _74  and  _75
REMARK   31  A    between atoms: _77  and  _79
REMARK   32  A    between atoms: _79  and  _80
REMARK   33  A    between atoms: _79  and  _82
REMARK   34  A    between atoms: _82  and  _83
REMARK   35  A    between atoms: _83  and  _84
REMARK   36  A    between atoms: _84  and  _85
REMARK   37  A    between atoms: _94  and  _96
REMARK   38  A    between atoms: _96  and  _97
REMARK   39  A    between atoms: _96  and  _99
REMARK   40  A    between atoms: _99  and  _100
REMARK   41  A    between atoms: _104  and  _105
REMARK   42  A    between atoms: _111  and  _112
REMARK   43  A    between atoms: _117  and  _119
REMARK   44  A    between atoms: _119  and  _120
REMARK   45  A    between atoms: _119  and  _122
REMARK   46  A    between atoms: _122  and  _123
REMARK   47  A    between atoms: _126  and  _128
REMARK   48  A    between atoms: _128  and  _129
REMARK   49  A    between atoms: _132  and  _133
REMARK   50  A    between atoms: _138  and  _140
REMARK   51  A    between atoms: _140  and  _141
REMARK   52  A    between atoms: _140  and  _143
REMARK   53  A    between atoms: _143  and  _144
REMARK   54  A    between atoms: _144  and  _145
REMARK   55  A    between atoms: _150  and  _152
REMARK   56  A    between atoms: _152  and  _153
REMARK   57  A    between atoms: _152  and  _155
REMARK   58  A    between atoms: _155  and  _156
REMARK   59  A    between atoms: _156  and  _157
REMARK   60  A    between atoms: _163  and  _164
REMARK   61  A    between atoms: _169  and  _171
REMARK   62  A    between atoms: _171  and  _172
REMARK   63  A    between atoms: _171  and  _174
REMARK   64  A    between atoms: _174  and  _175
REMARK   65  A    between atoms: _178  and  _180
REMARK   66  A    between atoms: _180  and  _181
REMARK   67  A    between atoms: _180  and  _183
REMARK   68  A    between atoms: _183  and  _184
REMARK   69  A    between atoms: _189  and  _190
REMARK   70  A    between atoms: _192  and  _194
REMARK   71  A    between atoms: _194  and  _195
REMARK   72  A    between atoms: _194  and  _197
REMARK   73  A    between atoms: _197  and  _198
REMARK   74  A    between atoms: _201  and  _203
REMARK   75  A    between atoms: _203  and  _204
REMARK   76  A    between atoms: _203  and  _206
REMARK   77  A    between atoms: _206  and  _207
REMARK   78  A    between atoms: _212  and  _214
REMARK   79  A    between atoms: _214  and  _215
REMARK   80  A    between atoms: _218  and  _220
REMARK   81  A    between atoms: _220  and  _221
REMARK   82  A    between atoms: _220  and  _223
REMARK   83  A    between atoms: _223  and  _224
REMARK   84  A    between atoms: _224  and  _225
REMARK   85  A    between atoms: _228  and  _230
REMARK   86  A    between atoms: _230  and  _231
REMARK   87  A    between atoms: _230  and  _233
REMARK   88  A    between atoms: _233  and  _234
REMARK   89  A    between atoms: _237  and  _239
REMARK   90  A    between atoms: _239  and  _240
REMARK   91  A    between atoms: _239  and  _242
REMARK   92  A    between atoms: _242  and  _243
REMARK   93  A    between atoms: _246  and  _248
REMARK   94  A    between atoms: _248  and  _249
REMARK   95  A    between atoms: _248  and  _251
REMARK   96  A    between atoms: _251  and  _252
REMARK   97  A    between atoms: _252  and  _253
REMARK   98  A    between atoms: _258  and  _260
REMARK   99  A    between atoms: _260  and  _261
REMARK  100  A    between atoms: _260  and  _263
REMARK  101  A    between atoms: _263  and  _264
REMARK  102  A    between atoms: _264  and  _265
REMARK  103  A    between atoms: _268  and  _270
REMARK  104  A    between atoms: _270  and  _271
REMARK  105  A    between atoms: _270  and  _273
REMARK  106  A    between atoms: _273  and  _274
REMARK  107  A    between atoms: _274  and  _275
REMARK  108  A    between atoms: _275  and  _276
REMARK  109  A    between atoms: _285  and  _287
REMARK  110  A    between atoms: _287  and  _288
REMARK  111  A    between atoms: _287  and  _290
REMARK  112  A    between atoms: _293  and  _295
REMARK  113  A    between atoms: _295  and  _296
REMARK  114  A    between atoms: _295  and  _298
REMARK  115  A    between atoms: _298  and  _299
REMARK  116  A    between atoms: _299  and  _300
REMARK  117  A    between atoms: _300  and  _301
REMARK  118  A    between atoms: _310  and  _312
REMARK  119  A    between atoms: _312  and  _313
REMARK  120  A    between atoms: _312  and  _315
REMARK  121  A    between atoms: _315  and  _316
REMARK  122  A    between atoms: _316  and  _317
REMARK  123  A    between atoms: _317  and  _318
REMARK  124  A    between atoms: _318  and  _319
REMARK  125  A    between atoms: _323  and  _325
REMARK  126  A    between atoms: _325  and  _326
REMARK  127  A    between atoms: _329  and  _331
REMARK  128  A    between atoms: _331  and  _332
REMARK  129  A    between atoms: _331  and  _334
REMARK  130  A    between atoms: _334  and  _335
REMARK  131  A    between atoms: _335  and  _336
REMARK  132  A    between atoms: _339  and  _341
REMARK  133  A    between atoms: _341  and  _342
REMARK  134  A    between atoms: _341  and  _344
REMARK  135  A    between atoms: _344  and  _345
REMARK  136  A    between atoms: _345  and  _346
REMARK  137  A    between atoms: _346  and  _347
REMARK  138  A    between atoms: _356  and  _358
REMARK  139  A    between atoms: _358  and  _359
REMARK  140  A    between atoms: _358  and  _361
REMARK  141  A    between atoms: _361  and  _362
REMARK  142  A    between atoms: _372  and  _374
REMARK  143  A    between atoms: _374  and  _375
REMARK  144  A    between atoms: _378  and  _379
REMARK  145  A    between atoms: _384  and  _386
REMARK  146  A    between atoms: _386  and  _387
REMARK  147  A    between atoms: _386  and  _389
REMARK  148  A    between atoms: _389  and  _390
REMARK  149  A    between atoms: _390  and  _391
REMARK  150  A    between atoms: _391  and  _392
REMARK  151  A    between atoms: _401  and  _403
REMARK  152  A    between atoms: _403  and  _404
REMARK  153  A    between atoms: _403  and  _406
REMARK  154  A    between atoms: _406  and  _407
REMARK  155  A    between atoms: _410  and  _412
REMARK  156  A    between atoms: _412  and  _413
REMARK  157  A    between atoms: _412  and  _415
REMARK  158  A    between atoms: _415  and  _416
REMARK  159  A    between atoms: _419  and  _421
REMARK  160  A    between atoms: _421  and  _422
REMARK  161  A    between atoms: _421  and  _424
REMARK  162  A    between atoms: _424  and  _425
REMARK  163  A    between atoms: _428  and  _430
REMARK  164  A    between atoms: _430  and  _431
REMARK  165  A    between atoms: _430  and  _433
REMARK  166  A    between atoms: _433  and  _434
REMARK  167  A    between atoms: _437  and  _439
REMARK  168  A    between atoms: _439  and  _440
REMARK  169  A    between atoms: _439  and  _442
REMARK  170  A    between atoms: _442  and  _443
REMARK  171  A    between atoms: _446  and  _448
REMARK  172  A    between atoms: _448  and  _449
REMARK  173  A    between atoms: _448  and  _451
REMARK  174  A    between atoms: _451  and  _452
REMARK  175  A    between atoms: _452  and  _453
REMARK  176  A    between atoms: _455  and  _457
REMARK  177  A    between atoms: _457  and  _458
REMARK  178  A    between atoms: _457  and  _460
REMARK  179  A    between atoms: _460  and  _461
REMARK  180  A    between atoms: _464  and  _466
REMARK  181  A    between atoms: _466  and  _467
REMARK  182  A    between atoms: _466  and  _469
REMARK  183  A    between atoms: _469  and  _470
REMARK  184  A    between atoms: _476  and  _478
REMARK  185  A    between atoms: _478  and  _479
REMARK  186  A    between atoms: _478  and  _481
REMARK  187  A    between atoms: _481  and  _482
REMARK  188  A    between atoms: _485  and  _487
REMARK  189  A    between atoms: _487  and  _488
REMARK  190  A    between atoms: _487  and  _490
REMARK  191  A    between atoms: _490  and  _491
REMARK  192  A    between atoms: _496  and  _498
REMARK  193  A    between atoms: _498  and  _499
REMARK  194  A    between atoms: _498  and  _501
REMARK  195  A    between atoms: _501  and  _502
REMARK  196  A    between atoms: _505  and  _507
REMARK  197  A    between atoms: _507  and  _508
REMARK  198  A    between atoms: _507  and  _510
REMARK  199  A    between atoms: _510  and  _511
REMARK  200  A    between atoms: _511  and  _512
REMARK  201  A    between atoms: _515  and  _517
REMARK  202  A    between atoms: _517  and  _518
REMARK  203  A    between atoms: _517  and  _520
REMARK  204  A    between atoms: _520  and  _521
REMARK  205  A    between atoms: _521  and  _522
REMARK  206  A    between atoms: _522  and  _523
REMARK  207  A    between atoms: _532  and  _534
REMARK  208  A    between atoms: _534  and  _535
REMARK  209  A    between atoms: _534  and  _537
REMARK  210  A    between atoms: _537  and  _538
REMARK  211  A    between atoms: _541  and  _543
REMARK  212  A    between atoms: _543  and  _544
REMARK  213  A    between atoms: _543  and  _546
REMARK  214  A    between atoms: _546  and  _547
REMARK  215  A    between atoms: _550  and  _552
REMARK  216  A    between atoms: _552  and  _553
REMARK  217  A    between atoms: _552  and  _555
REMARK  218  A    between atoms: _559  and  _560
REMARK  219  A    between atoms: _565  and  _567
REMARK  220  A    between atoms: _567  and  _568
REMARK  221  A    between atoms: _567  and  _570
REMARK  222  A    between atoms: _570  and  _571
REMARK  223  A    between atoms: _576  and  _578
REMARK  224  A    between atoms: _578  and  _579
REMARK  225  A    between atoms: _578  and  _581
REMARK  226  A    between atoms: _581  and  _582
REMARK  227  A    between atoms: _587  and  _588
REMARK  228  A    between atoms: _590  and  _592
REMARK  229  A    between atoms: _592  and  _593
REMARK  230  A    between atoms: _592  and  _595
REMARK  231  A    between atoms: _595  and  _596
REMARK  232  A    between atoms: _599  and  _601
REMARK  233  A    between atoms: _601  and  _602
REMARK  234  A    between atoms: _601  and  _604
REMARK  235  A    between atoms: _604  and  _605
REMARK  236  A    between atoms: _605  and  _606
REMARK  237  A    between atoms: _608  and  _610
REMARK  238  A    between atoms: _610  and  _611
REMARK  239  A    between atoms: _610  and  _613
REMARK  240  A    between atoms: _613  and  _614
REMARK  241  A    between atoms: _614  and  _615
REMARK  242  A    between atoms: _615  and  _616
REMARK  243  A    between atoms: _625  and  _627
REMARK  244  A    between atoms: _627  and  _628
REMARK  245  A    between atoms: _630  and  _632
REMARK  246  A    between atoms: _632  and  _633
REMARK  247  A    between atoms: _632  and  _635
REMARK  248  A    between atoms: _635  and  _636
REMARK  249  A    between atoms: _642  and  _644
REMARK  250  A    between atoms: _644  and  _645
REMARK  251  A    between atoms: _644  and  _647
REMARK  252  A    between atoms: _647  and  _648
REMARK  253  A    between atoms: _648  and  _649
REMARK  254  A    between atoms: _651  and  _653
REMARK  255  A    between atoms: _653  and  _654
REMARK  256  A    between atoms: _653  and  _656
REMARK  257  A    between atoms: _656  and  _657
REMARK                            x       y       z     vdW  Elec       q    Type
REMARK                         _______ _______ _______ _____ _____    ______ ____
ROOT
ATOM      1  O   HOH     1       3.673  31.441  12.265  0.00  0.00    +0.000 OA
ENDROOT
TORSDOF 0
REMARK  Name = ../refined-set-2016/1ex8/1ex8_pocket.pdb
REMARK  257 active torsions:
REMARK  status: ('A' for Active; 'I' for Inactive)
REMARK    1  A    between atoms: _1  and  _3
REMARK    2  A    between atoms: _3  and  _4
REMARK    3  A    between atoms: _3  and  _6
REMARK    4  A    between atoms: _6  and  _7
REMARK    5  A    between atoms: _12  and  _13
REMARK    6  A    between atoms: _15  and  _17
REMARK    7  A    between atoms: _17  and  _18
REMARK    8  A    between atoms: _17  and  _20
REMARK    9  A    between atoms: _20  and  _21
REMARK   10  A    between atoms: _24  and  _26
REMARK   11  A    between atoms: _26  and  _27
REMARK   12  A    between atoms: _30  and  _32
REMARK   13  A    between atoms: _32  and  _33
REMARK   14  A    between atoms: _32  and  _35
REMARK   15  A    between atoms: _35  and  _36
REMARK   16  A    between atoms: _39  and  _41
REMARK   17  A    between atoms: _41  and  _42
REMARK   18  A    between atoms: _44  and  _46
REMARK   19  A    between atoms: _46  and  _47
REMARK   20  A    between atoms: _46  and  _49
REMARK   21  A    between atoms: _49  and  _50
REMARK   22  A    between atoms: _52  and  _54
REMARK   23  A    between atoms: _54  and  _55
REMARK   24  A    between atoms: _54  and  _57
REMARK   25  A    between atoms: _57  and  _58
REMARK   26  A    between atoms: _63  and  _65
REMARK   27  A    between atoms: _65  and  _66
REMARK   28  A    between atoms: _65  and  _68
REMARK   29  A    between atoms: _68  and  _69
REMARK   30  A    between atoms: _74  and  _75
REMARK   31  A    between atoms: _77  and  _79
REMARK   32  A    between atoms: _79  and  _80
REMARK   33  A    between atoms: _79  and  _82
REMARK   34  A    between atoms: _82  and  _83
REMARK   35  A    between atoms: _83  and  _84
REMARK   36  A    between atoms: _84  and  _85
REMARK   37  A    between atoms: _94  and  _96
REMARK   38  A    between atoms: _96  and  _97
REMARK   39  A    between atoms: _96  and  _99
REMARK   40  A    between atoms: _99  and  _100
REMARK   41  A    between atoms: _104  and  _105
REMARK   42  A    between atoms: _111  and  _112
REMARK   43  A    between atoms: _117  and  _119
REMARK   44  A    between atoms: _119  and  _120
REMARK   45  A    between atoms: _119  and  _122
REMARK   46  A    between atoms: _122  and  _123
REMARK   47  A    between atoms: _126  and  _128
REMARK   48  A    between atoms: _128  and  _129
REMARK   49  A    between atoms: _132  and  _133
REMARK   50  A    between atoms: _138  and  _140
REMARK   51  A    between atoms: _140  and  _141
REMARK   52  A    between atoms: _140  and  _143
REMARK   53  A    between atoms: _143  and  _144
REMARK   54  A    between atoms: _144  and  _145
REMARK   55  A    between atoms: _150  and  _152
REMARK   56  A    between atoms: _152  and  _153
REMARK   57  A    between atoms: _152  and  _155
REMARK   58  A    between atoms: _155  and  _156
REMARK   59  A    between atoms: _156  and  _157
REMARK   60  A    between atoms: _163  and  _164
REMARK   61  A    between atoms: _169  and  _171
REMARK   62  A    between atoms: _171  and  _172
REMARK   63  A    between atoms: _171  and  _174
REMARK   64  A    between atoms: _174  and  _175
REMARK   65  A    between atoms: _178  and  _180
REMARK   66  A    between atoms: _180  and  _181
REMARK   67  A    between atoms: _180  and  _183
REMARK   68  A    between atoms: _183  and  _184
REMARK   69  A    between atoms: _189  and  _190
REMARK   70  A    between atoms: _192  and  _194
REMARK   71  A    between atoms: _194  and  _195
REMARK   72  A    between atoms: _194  and  _197
REMARK   73  A    between atoms: _197  and  _198
REMARK   74  A    between atoms: _201  and  _203
REMARK   75  A    between atoms: _203  and  _204
REMARK   76  A    between atoms: _203  and  _206
REMARK   77  A    between atoms: _206  and  _207
REMARK   78  A    between atoms: _212  and  _214
REMARK   79  A    between atoms: _214  and  _215
REMARK   80  A    between atoms: _218  and  _220
REMARK   81  A    between atoms: _220  and  _221
REMARK   82  A    between atoms: _220  and  _223
REMARK   83  A    between atoms: _223  and  _224
REMARK   84  A    between atoms: _224  and  _225
REMARK   85  A    between atoms: _228  and  _230
REMARK   86  A    between atoms: _230  and  _231
REMARK   87  A    between atoms: _230  and  _233
REMARK   88  A    between atoms: _233  and  _234
REMARK   89  A    between atoms: _237  and  _239
REMARK   90  A    between atoms: _239  and  _240
REMARK   91  A    between atoms: _239  and  _242
REMARK   92  A    between atoms: _242  and  _243
REMARK   93  A    between atoms: _246  and  _248
REMARK   94  A    between atoms: _248  and  _249
REMARK   95  A    between atoms: _248  and  _251
REMARK   96  A    between atoms: _251  and  _252
REMARK   97  A    between atoms: _252  and  _253
REMARK   98  A    between atoms: _258  and  _260
REMARK   99  A    between atoms: _260  and  _261
REMARK  100  A    between atoms: _260  and  _263
REMARK  101  A    between atoms: _263  and  _264
REMARK  102  A    between atoms: _264  and  _265
REMARK  103  A    between atoms: _268  and  _270
REMARK  104  A    between atoms: _270  and  _271
REMARK  105  A    between atoms: _270  and  _273
REMARK  106  A    between atoms: _273  and  _274
REMARK  107  A    between atoms: _274  and  _275
REMARK  108  A    between atoms: _275  and  _276
REMARK  109  A    between atoms: _285  and  _287
REMARK  110  A    between atoms: _287  and  _288
REMARK  111  A    between atoms: _287  and  _290
REMARK  112  A    between atoms: _293  and  _295
REMARK  113  A    between atoms: _295  and  _296
REMARK  114  A    between atoms: _295  and  _298
REMARK  115  A    between atoms: _298  and  _299
REMARK  116  A    between atoms: _299  and  _300
REMARK  117  A    between atoms: _300  and  _301
REMARK  118  A    between atoms: _310  and  _312
REMARK  119  A    between atoms: _312  and  _313
REMARK  120  A    between atoms: _312  and  _315
REMARK  121  A    between atoms: _315  and  _316
REMARK  122  A    between atoms: _316  and  _317
REMARK  123  A    between atoms: _317  and  _318
REMARK  124  A    between atoms: _318  and  _319
REMARK  125  A    between atoms: _323  and  _325
REMARK  126  A    between atoms: _325  and  _326
REMARK  127  A    between atoms: _329  and  _331
REMARK  128  A    between atoms: _331  and  _332
REMARK  129  A    between atoms: _331  and  _334
REMARK  130  A    between atoms: _334  and  _335
REMARK  131  A    between atoms: _335  and  _336
REMARK  132  A    between atoms: _339  and  _341
REMARK  133  A    between atoms: _341  and  _342
REMARK  134  A    between atoms: _341  and  _344
REMARK  135  A    between atoms: _344  and  _345
REMARK  136  A    between atoms: _345  and  _346
REMARK  137  A    between atoms: _346  and  _347
REMARK  138  A    between atoms: _356  and  _358
REMARK  139  A    between atoms: _358  and  _359
REMARK  140  A    between atoms: _358  and  _361
REMARK  141  A    between atoms: _361  and  _362
REMARK  142  A    between atoms: _372  and  _374
REMARK  143  A    between atoms: _374  and  _375
REMARK  144  A    between atoms: _378  and  _379
REMARK  145  A    between atoms: _384  and  _386
REMARK  146  A    between atoms: _386  and  _387
REMARK  147  A    between atoms: _386  and  _389
REMARK  148  A    between atoms: _389  and  _390
REMARK  149  A    between atoms: _390  and  _391
REMARK  150  A    between atoms: _391  and  _392
REMARK  151  A    between atoms: _401  and  _403
REMARK  152  A    between atoms: _403  and  _404
REMARK  153  A    between atoms: _403  and  _406
REMARK  154  A    between atoms: _406  and  _407
REMARK  155  A    between atoms: _410  and  _412
REMARK  156  A    between atoms: _412  and  _413
REMARK  157  A    between atoms: _412  and  _415
REMARK  158  A    between atoms: _415  and  _416
REMARK  159  A    between atoms: _419  and  _421
REMARK  160  A    between atoms: _421  and  _422
REMARK  161  A    between atoms: _421  and  _424
REMARK  162  A    between atoms: _424  and  _425
REMARK  163  A    between atoms: _428  and  _430
REMARK  164  A    between atoms: _430  and  _431
REMARK  165  A    between atoms: _430  and  _433
REMARK  166  A    between atoms: _433  and  _434
REMARK  167  A    between atoms: _437  and  _439
REMARK  168  A    between atoms: _439  and  _440
REMARK  169  A    between atoms: _439  and  _442
REMARK  170  A    between atoms: _442  and  _443
REMARK  171  A    between atoms: _446  and  _448
REMARK  172  A    between atoms: _448  and  _449
REMARK  173  A    between atoms: _448  and  _451
REMARK  174  A    between atoms: _451  and  _452
REMARK  175  A    between atoms: _452  and  _453
REMARK  176  A    between atoms: _455  and  _457
REMARK  177  A    between atoms: _457  and  _458
REMARK  178  A    between atoms: _457  and  _460
REMARK  179  A    between atoms: _460  and  _461
REMARK  180  A    between atoms: _464  and  _466
REMARK  181  A    between atoms: _466  and  _467
REMARK  182  A    between atoms: _466  and  _469
REMARK  183  A    between atoms: _469  and  _470
REMARK  184  A    between atoms: _476  and  _478
REMARK  185  A    between atoms: _478  and  _479
REMARK  186  A    between atoms: _478  and  _481
REMARK  187  A    between atoms: _481  and  _482
REMARK  188  A    between atoms: _485  and  _487
REMARK  189  A    between atoms: _487  and  _488
REMARK  190  A    between atoms: _487  and  _490
REMARK  191  A    between atoms: _490  and  _491
REMARK  192  A    between atoms: _496  and  _498
REMARK  193  A    between atoms: _498  and  _499
REMARK  194  A    between atoms: _498  and  _501
REMARK  195  A    between atoms: _501  and  _502
REMARK  196  A    between atoms: _505  and  _507
REMARK  197  A    between atoms: _507  and  _508
REMARK  198  A    between atoms: _507  and  _510
REMARK  199  A    between atoms: _510  and  _511
REMARK  200  A    between atoms: _511  and  _512
REMARK  201  A    between atoms: _515  and  _517
REMARK  202  A    between atoms: _517  and  _518
REMARK  203  A    between atoms: _517  and  _520
REMARK  204  A    between atoms: _520  and  _521
REMARK  205  A    between atoms: _521  and  _522
REMARK  206  A    between atoms: _522  and  _523
REMARK  207  A    between atoms: _532  and  _534
REMARK  208  A    between atoms: _534  and  _535
REMARK  209  A    between atoms: _534  and  _537
REMARK  210  A    between atoms: _537  and  _538
REMARK  211  A    between atoms: _541  and  _543
REMARK  212  A    between atoms: _543  and  _544
REMARK  213  A    between atoms: _543  and  _546
REMARK  214  A    between atoms: _546  and  _547
REMARK  215  A    between atoms: _550  and  _552
REMARK  216  A    between atoms: _552  and  _553
REMARK  217  A    between atoms: _552  and  _555
REMARK  218  A    between atoms: _559  and  _560
REMARK  219  A    between atoms: _565  and  _567
REMARK  220  A    between atoms: _567  and  _568
REMARK  221  A    between atoms: _567  and  _570
REMARK  222  A    between atoms: _570  and  _571
REMARK  223  A    between atoms: _576  and  _578
REMARK  224  A    between atoms: _578  and  _579
REMARK  225  A    between atoms: _578  and  _581
REMARK  226  A    between atoms: _581  and  _582
REMARK  227  A    between atoms: _587  and  _588
REMARK  228  A    between atoms: _590  and  _592
REMARK  229  A    between atoms: _592  and  _593
REMARK  230  A    between atoms: _592  and  _595
REMARK  231  A    between atoms: _595  and  _596
REMARK  232  A    between atoms: _599  and  _601
REMARK  233  A    between atoms: _601  and  _602
REMARK  234  A    between atoms: _601  and  _604
REMARK  235  A    between atoms: _604  and  _605
REMARK  236  A    between atoms: _605  and  _606
REMARK  237  A    between atoms: _608  and  _610
REMARK  238  A    between atoms: _610  and  _611
REMARK  239  A    between atoms: _610  and  _613
REMARK  240  A    between atoms: _613  and  _614
REMARK  241  A    between atoms: _614  and  _615
REMARK  242  A    between atoms: _615  and  _616
REMARK  243  A    between atoms: _625  and  _627
REMARK  244  A    between atoms: _627  and  _628
REMARK  245  A    between atoms: _630  and  _632
REMARK  246  A    between atoms: _632  and  _633
REMARK  247  A    between atoms: _632  and  _635
REMARK  248  A    between atoms: _635  and  _636
REMARK  249  A    between atoms: _642  and  _644
REMARK  250  A    between atoms: _644  and  _645
REMARK  251  A    between atoms: _644  and  _647
REMARK  252  A    between atoms: _647  and  _648
REMARK  253  A    between atoms: _648  and  _649
REMARK  254  A    between atoms: _651  and  _653
REMARK  255  A    between atoms: _653  and  _654
REMARK  256  A    between atoms: _653  and  _656
REMARK  257  A    between atoms: _656  and  _657
REMARK                            x       y       z     vdW  Elec       q    Type
REMARK                         _______ _______ _______ _____ _____    ______ ____
ROOT
ATOM      1  O   HOH     1       5.053  21.837  10.202  0.00  0.00    +0.000 OA
ENDROOT
TORSDOF 0
REMARK  Name = ../refined-set-2016/1ex8/1ex8_pocket.pdb
REMARK  257 active torsions:
REMARK  status: ('A' for Active; 'I' for Inactive)
REMARK    1  A    between atoms: _1  and  _3
REMARK    2  A    between atoms: _3  and  _4
REMARK    3  A    between atoms: _3  and  _6
REMARK    4  A    between atoms: _6  and  _7
REMARK    5  A    between atoms: _12  and  _13
REMARK    6  A    between atoms: _15  and  _17
REMARK    7  A    between atoms: _17  and  _18
REMARK    8  A    between atoms: _17  and  _20
REMARK    9  A    between atoms: _20  and  _21
REMARK   10  A    between atoms: _24  and  _26
REMARK   11  A    between atoms: _26  and  _27
REMARK   12  A    between atoms: _30  and  _32
REMARK   13  A    between atoms: _32  and  _33
REMARK   14  A    between atoms: _32  and  _35
REMARK   15  A    between atoms: _35  and  _36
REMARK   16  A    between atoms: _39  and  _41
REMARK   17  A    between atoms: _41  and  _42
REMARK   18  A    between atoms: _44  and  _46
REMARK   19  A    between atoms: _46  and  _47
REMARK   20  A    between atoms: _46  and  _49
REMARK   21  A    between atoms: _49  and  _50
REMARK   22  A    between atoms: _52  and  _54
REMARK   23  A    between atoms: _54  and  _55
REMARK   24  A    between atoms: _54  and  _57
REMARK   25  A    between atoms: _57  and  _58
REMARK   26  A    between atoms: _63  and  _65
REMARK   27  A    between atoms: _65  and  _66
REMARK   28  A    between atoms: _65  and  _68
REMARK   29  A    between atoms: _68  and  _69
REMARK   30  A    between atoms: _74  and  _75
REMARK   31  A    between atoms: _77  and  _79
REMARK   32  A    between atoms: _79  and  _80
REMARK   33  A    between atoms: _79  and  _82
REMARK   34  A    between atoms: _82  and  _83
REMARK   35  A    between atoms: _83  and  _84
REMARK   36  A    between atoms: _84  and  _85
REMARK   37  A    between atoms: _94  and  _96
REMARK   38  A    between atoms: _96  and  _97
REMARK   39  A    between atoms: _96  and  _99
REMARK   40  A    between atoms: _99  and  _100
REMARK   41  A    between atoms: _104  and  _105
REMARK   42  A    between atoms: _111  and  _112
REMARK   43  A    between atoms: _117  and  _119
REMARK   44  A    between atoms: _119  and  _120
REMARK   45  A    between atoms: _119  and  _122
REMARK   46  A    between atoms: _122  and  _123
REMARK   47  A    between atoms: _126  and  _128
REMARK   48  A    between atoms: _128  and  _129
REMARK   49  A    between atoms: _132  and  _133
REMARK   50  A    between atoms: _138  and  _140
REMARK   51  A    between atoms: _140  and  _141
REMARK   52  A    between atoms: _140  and  _143
REMARK   53  A    between atoms: _143  and  _144
REMARK   54  A    between atoms: _144  and  _145
REMARK   55  A    between atoms: _150  and  _152
REMARK   56  A    between atoms: _152  and  _153
REMARK   57  A    between atoms: _152  and  _155
REMARK   58  A    between atoms: _155  and  _156
REMARK   59  A    between atoms: _156  and  _157
REMARK   60  A    between atoms: _163  and  _164
REMARK   61  A    between atoms: _169  and  _171
REMARK   62  A    between atoms: _171  and  _172
REMARK   63  A    between atoms: _171  and  _174
REMARK   64  A    between atoms: _174  and  _175
REMARK   65  A    between atoms: _178  and  _180
REMARK   66  A    between atoms: _180  and  _181
REMARK   67  A    between atoms: _180  and  _183
REMARK   68  A    between atoms: _183  and  _184
REMARK   69  A    between atoms: _189  and  _190
REMARK   70  A    between atoms: _192  and  _194
REMARK   71  A    between atoms: _194  and  _195
REMARK   72  A    between atoms: _194  and  _197
REMARK   73  A    between atoms: _197  and  _198
REMARK   74  A    between atoms: _201  and  _203
REMARK   75  A    between atoms: _203  and  _204
REMARK   76  A    between atoms: _203  and  _206
REMARK   77  A    between atoms: _206  and  _207
REMARK   78  A    between atoms: _212  and  _214
REMARK   79  A    between atoms: _214  and  _215
REMARK   80  A    between atoms: _218  and  _220
REMARK   81  A    between atoms: _220  and  _221
REMARK   82  A    between atoms: _220  and  _223
REMARK   83  A    between atoms: _223  and  _224
REMARK   84  A    between atoms: _224  and  _225
REMARK   85  A    between atoms: _228  and  _230
REMARK   86  A    between atoms: _230  and  _231
REMARK   87  A    between atoms: _230  and  _233
REMARK   88  A    between atoms: _233  and  _234
REMARK   89  A    between atoms: _237  and  _239
REMARK   90  A    between atoms: _239  and  _240
REMARK   91  A    between atoms: _239  and  _242
REMARK   92  A    between atoms: _242  and  _243
REMARK   93  A    between atoms: _246  and  _248
REMARK   94  A    between atoms: _248  and  _249
REMARK   95  A    between atoms: _248  and  _251
REMARK   96  A    between atoms: _251  and  _252
REMARK   97  A    between atoms: _252  and  _253
REMARK   98  A    between atoms: _258  and  _260
REMARK   99  A    between atoms: _260  and  _261
REMARK  100  A    between atoms: _260  and  _263
REMARK  101  A    between atoms: _263  and  _264
REMARK  102  A    between atoms: _264  and  _265
REMARK  103  A    between atoms: _268  and  _270
REMARK  104  A    between atoms: _270  and  _271
REMARK  105  A    between atoms: _270  and  _273
REMARK  106  A    between atoms: _273  and  _274
REMARK  107  A    between atoms: _274  and  _275
REMARK  108  A    between atoms: _275  and  _276
REMARK  109  A    between atoms: _285  and  _287
REMARK  110  A    between atoms: _287  and  _288
REMARK  111  A    between atoms: _287  and  _290
REMARK  112  A    between atoms: _293  and  _295
REMARK  113  A    between atoms: _295  and  _296
REMARK  114  A    between atoms: _295  and  _298
REMARK  115  A    between atoms: _298  and  _299
REMARK  116  A    between atoms: _299  and  _300
REMARK  117  A    between atoms: _300  and  _301
REMARK  118  A    between atoms: _310  and  _312
REMARK  119  A    between atoms: _312  and  _313
REMARK  120  A    between atoms: _312  and  _315
REMARK  121  A    between atoms: _315  and  _316
REMARK  122  A    between atoms: _316  and  _317
REMARK  123  A    between atoms: _317  and  _318
REMARK  124  A    between atoms: _318  and  _319
REMARK  125  A    between atoms: _323  and  _325
REMARK  126  A    between atoms: _325  and  _326
REMARK  127  A    between atoms: _329  and  _331
REMARK  128  A    between atoms: _331  and  _332
REMARK  129  A    between atoms: _331  and  _334
REMARK  130  A    between atoms: _334  and  _335
REMARK  131  A    between atoms: _335  and  _336
REMARK  132  A    between atoms: _339  and  _341
REMARK  133  A    between atoms: _341  and  _342
REMARK  134  A    between atoms: _341  and  _344
REMARK  135  A    between atoms: _344  and  _345
REMARK  136  A    between atoms: _345  and  _346
REMARK  137  A    between atoms: _346  and  _347
REMARK  138  A    between atoms: _356  and  _358
REMARK  139  A    between atoms: _358  and  _359
REMARK  140  A    between atoms: _358  and  _361
REMARK  141  A    between atoms: _361  and  _362
REMARK  142  A    between atoms: _372  and  _374
REMARK  143  A    between atoms: _374  and  _375
REMARK  144  A    between atoms: _378  and  _379
REMARK  145  A    between atoms: _384  and  _386
REMARK  146  A    between atoms: _386  and  _387
REMARK  147  A    between atoms: _386  and  _389
REMARK  148  A    between atoms: _389  and  _390
REMARK  149  A    between atoms: _390  and  _391
REMARK  150  A    between atoms: _391  and  _392
REMARK  151  A    between atoms: _401  and  _403
REMARK  152  A    between atoms: _403  and  _404
REMARK  153  A    between atoms: _403  and  _406
REMARK  154  A    between atoms: _406  and  _407
REMARK  155  A    between atoms: _410  and  _412
REMARK  156  A    between atoms: _412  and  _413
REMARK  157  A    between atoms: _412  and  _415
REMARK  158  A    between atoms: _415  and  _416
REMARK  159  A    between atoms: _419  and  _421
REMARK  160  A    between atoms: _421  and  _422
REMARK  161  A    between atoms: _421  and  _424
REMARK  162  A    between atoms: _424  and  _425
REMARK  163  A    between atoms: _428  and  _430
REMARK  164  A    between atoms: _430  and  _431
REMARK  165  A    between atoms: _430  and  _433
REMARK  166  A    between atoms: _433  and  _434
REMARK  167  A    between atoms: _437  and  _439
REMARK  168  A    between atoms: _439  and  _440
REMARK  169  A    between atoms: _439  and  _442
REMARK  170  A    between atoms: _442  and  _443
REMARK  171  A    between atoms: _446  and  _448
REMARK  172  A    between atoms: _448  and  _449
REMARK  173  A    between atoms: _448  and  _451
REMARK  174  A    between atoms: _451  and  _452
REMARK  175  A    between atoms: _452  and  _453
REMARK  176  A    between atoms: _455  and  _457
REMARK  177  A    between atoms: _457  and  _458
REMARK  178  A    between atoms: _457  and  _460
REMARK  179  A    between atoms: _460  and  _461
REMARK  180  A    between atoms: _464  and  _466
REMARK  181  A    between atoms: _466  and  _467
REMARK  182  A    between atoms: _466  and  _469
REMARK  183  A    between atoms: _469  and  _470
REMARK  184  A    between atoms: _476  and  _478
REMARK  185  A    between atoms: _478  and  _479
REMARK  186  A    between atoms: _478  and  _481
REMARK  187  A    between atoms: _481  and  _482
REMARK  188  A    between atoms: _485  and  _487
REMARK  189  A    between atoms: _487  and  _488
REMARK  190  A    between atoms: _487  and  _490
REMARK  191  A    between atoms: _490  and  _491
REMARK  192  A    between atoms: _496  and  _498
REMARK  193  A    between atoms: _498  and  _499
REMARK  194  A    between atoms: _498  and  _501
REMARK  195  A    between atoms: _501  and  _502
REMARK  196  A    between atoms: _505  and  _507
REMARK  197  A    between atoms: _507  and  _508
REMARK  198  A    between atoms: _507  and  _510
REMARK  199  A    between atoms: _510  and  _511
REMARK  200  A    between atoms: _511  and  _512
REMARK  201  A    between atoms: _515  and  _517
REMARK  202  A    between atoms: _517  and  _518
REMARK  203  A    between atoms: _517  and  _520
REMARK  204  A    between atoms: _520  and  _521
REMARK  205  A    between atoms: _521  and  _522
REMARK  206  A    between atoms: _522  and  _523
REMARK  207  A    between atoms: _532  and  _534
REMARK  208  A    between atoms: _534  and  _535
REMARK  209  A    between atoms: _534  and  _537
REMARK  210  A    between atoms: _537  and  _538
REMARK  211  A    between atoms: _541  and  _543
REMARK  212  A    between atoms: _543  and  _544
REMARK  213  A    between atoms: _543  and  _546
REMARK  214  A    between atoms: _546  and  _547
REMARK  215  A    between atoms: _550  and  _552
REMARK  216  A    between atoms: _552  and  _553
REMARK  217  A    between atoms: _552  and  _555
REMARK  218  A    between atoms: _559  and  _560
REMARK  219  A    between atoms: _565  and  _567
REMARK  220  A    between atoms: _567  and  _568
REMARK  221  A    between atoms: _567  and  _570
REMARK  222  A    between atoms: _570  and  _571
REMARK  223  A    between atoms: _576  and  _578
REMARK  224  A    between atoms: _578  and  _579
REMARK  225  A    between atoms: _578  and  _581
REMARK  226  A    between atoms: _581  and  _582
REMARK  227  A    between atoms: _587  and  _588
REMARK  228  A    between atoms: _590  and  _592
REMARK  229  A    between atoms: _592  and  _593
REMARK  230  A    between atoms: _592  and  _595
REMARK  231  A    between atoms: _595  and  _596
REMARK  232  A    between atoms: _599  and  _601
REMARK  233  A    between atoms: _601  and  _602
REMARK  234  A    between atoms: _601  and  _604
REMARK  235  A    between atoms: _604  and  _605
REMARK  236  A    between atoms: _605  and  _606
REMARK  237  A    between atoms: _608  and  _610
REMARK  238  A    between atoms: _610  and  _611
REMARK  239  A    between atoms: _610  and  _613
REMARK  240  A    between atoms: _613  and  _614
REMARK  241  A    between atoms: _614  and  _615
REMARK  242  A    between atoms: _615  and  _616
REMARK  243  A    between atoms: _625  and  _627
REMARK  244  A    between atoms: _627  and  _628
REMARK  245  A    between atoms: _630  and  _632
REMARK  246  A    between atoms: _632  and  _633
REMARK  247  A    between atoms: _632  and  _635
REMARK  248  A    between atoms: _635  and  _636
REMARK  249  A    between atoms: _642  and  _644
REMARK  250  A    between atoms: _644  and  _645
REMARK  251  A    between atoms: _644  and  _647
REMARK  252  A    between atoms: _647  and  _648
REMARK  253  A    between atoms: _648  and  _649
REMARK  254  A    between atoms: _651  and  _653
REMARK  255  A    between atoms: _653  and  _654
REMARK  256  A    between atoms: _653  and  _656
REMARK  257  A    between atoms: _656  and  _657
REMARK                            x       y       z     vdW  Elec       q    Type
REMARK                         _______ _______ _______ _____ _____    ______ ____
ROOT
ATOM      1  O   HOH     1       7.646  30.248  13.683  0.00  0.00    +0.000 OA
ENDROOT
TORSDOF 0
REMARK  Name = ../refined-set-2016/1ex8/1ex8_pocket.pdb
REMARK  257 active torsions:
REMARK  status: ('A' for Active; 'I' for Inactive)
REMARK    1  A    between atoms: _1  and  _3
REMARK    2  A    between atoms: _3  and  _4
REMARK    3  A    between atoms: _3  and  _6
REMARK    4  A    between atoms: _6  and  _7
REMARK    5  A    between atoms: _12  and  _13
REMARK    6  A    between atoms: _15  and  _17
REMARK    7  A    between atoms: _17  and  _18
REMARK    8  A    between atoms: _17  and  _20
REMARK    9  A    between atoms: _20  and  _21
REMARK   10  A    between atoms: _24  and  _26
REMARK   11  A    between atoms: _26  and  _27
REMARK   12  A    between atoms: _30  and  _32
REMARK   13  A    between atoms: _32  and  _33
REMARK   14  A    between atoms: _32  and  _35
REMARK   15  A    between atoms: _35  and  _36
REMARK   16  A    between atoms: _39  and  _41
REMARK   17  A    between atoms: _41  and  _42
REMARK   18  A    between atoms: _44  and  _46
REMARK   19  A    between atoms: _46  and  _47
REMARK   20  A    between atoms: _46  and  _49
REMARK   21  A    between atoms: _49  and  _50
REMARK   22  A    between atoms: _52  and  _54
REMARK   23  A    between atoms: _54  and  _55
REMARK   24  A    between atoms: _54  and  _57
REMARK   25  A    between atoms: _57  and  _58
REMARK   26  A    between atoms: _63  and  _65
REMARK   27  A    between atoms: _65  and  _66
REMARK   28  A    between atoms: _65  and  _68
REMARK   29  A    between atoms: _68  and  _69
REMARK   30  A    between atoms: _74  and  _75
REMARK   31  A    between atoms: _77  and  _79
REMARK   32  A    between atoms: _79  and  _80
REMARK   33  A    between atoms: _79  and  _82
REMARK   34  A    between atoms: _82  and  _83
REMARK   35  A    between atoms: _83  and  _84
REMARK   36  A    between atoms: _84  and  _85
REMARK   37  A    between atoms: _94  and  _96
REMARK   38  A    between atoms: _96  and  _97
REMARK   39  A    between atoms: _96  and  _99
REMARK   40  A    between atoms: _99  and  _100
REMARK   41  A    between atoms: _104  and  _105
REMARK   42  A    between atoms: _111  and  _112
REMARK   43  A    between atoms: _117  and  _119
REMARK   44  A    between atoms: _119  and  _120
REMARK   45  A    between atoms: _119  and  _122
REMARK   46  A    between atoms: _122  and  _123
REMARK   47  A    between atoms: _126  and  _128
REMARK   48  A    between atoms: _128  and  _129
REMARK   49  A    between atoms: _132  and  _133
REMARK   50  A    between atoms: _138  and  _140
REMARK   51  A    between atoms: _140  and  _141
REMARK   52  A    between atoms: _140  and  _143
REMARK   53  A    between atoms: _143  and  _144
REMARK   54  A    between atoms: _144  and  _145
REMARK   55  A    between atoms: _150  and  _152
REMARK   56  A    between atoms: _152  and  _153
REMARK   57  A    between atoms: _152  and  _155
REMARK   58  A    between atoms: _155  and  _156
REMARK   59  A    between atoms: _156  and  _157
REMARK   60  A    between atoms: _163  and  _164
REMARK   61  A    between atoms: _169  and  _171
REMARK   62  A    between atoms: _171  and  _172
REMARK   63  A    between atoms: _171  and  _174
REMARK   64  A    between atoms: _174  and  _175
REMARK   65  A    between atoms: _178  and  _180
REMARK   66  A    between atoms: _180  and  _181
REMARK   67  A    between atoms: _180  and  _183
REMARK   68  A    between atoms: _183  and  _184
REMARK   69  A    between atoms: _189  and  _190
REMARK   70  A    between atoms: _192  and  _194
REMARK   71  A    between atoms: _194  and  _195
REMARK   72  A    between atoms: _194  and  _197
REMARK   73  A    between atoms: _197  and  _198
REMARK   74  A    between atoms: _201  and  _203
REMARK   75  A    between atoms: _203  and  _204
REMARK   76  A    between atoms: _203  and  _206
REMARK   77  A    between atoms: _206  and  _207
REMARK   78  A    between atoms: _212  and  _214
REMARK   79  A    between atoms: _214  and  _215
REMARK   80  A    between atoms: _218  and  _220
REMARK   81  A    between atoms: _220  and  _221
REMARK   82  A    between atoms: _220  and  _223
REMARK   83  A    between atoms: _223  and  _224
REMARK   84  A    between atoms: _224  and  _225
REMARK   85  A    between atoms: _228  and  _230
REMARK   86  A    between atoms: _230  and  _231
REMARK   87  A    between atoms: _230  and  _233
REMARK   88  A    between atoms: _233  and  _234
REMARK   89  A    between atoms: _237  and  _239
REMARK   90  A    between atoms: _239  and  _240
REMARK   91  A    between atoms: _239  and  _242
REMARK   92  A    between atoms: _242  and  _243
REMARK   93  A    between atoms: _246  and  _248
REMARK   94  A    between atoms: _248  and  _249
REMARK   95  A    between atoms: _248  and  _251
REMARK   96  A    between atoms: _251  and  _252
REMARK   97  A    between atoms: _252  and  _253
REMARK   98  A    between atoms: _258  and  _260
REMARK   99  A    between atoms: _260  and  _261
REMARK  100  A    between atoms: _260  and  _263
REMARK  101  A    between atoms: _263  and  _264
REMARK  102  A    between atoms: _264  and  _265
REMARK  103  A    between atoms: _268  and  _270
REMARK  104  A    between atoms: _270  and  _271
REMARK  105  A    between atoms: _270  and  _273
REMARK  106  A    between atoms: _273  and  _274
REMARK  107  A    between atoms: _274  and  _275
REMARK  108  A    between atoms: _275  and  _276
REMARK  109  A    between atoms: _285  and  _287
REMARK  110  A    between atoms: _287  and  _288
REMARK  111  A    between atoms: _287  and  _290
REMARK  112  A    between atoms: _293  and  _295
REMARK  113  A    between atoms: _295  and  _296
REMARK  114  A    between atoms: _295  and  _298
REMARK  115  A    between atoms: _298  and  _299
REMARK  116  A    between atoms: _299  and  _300
REMARK  117  A    between atoms: _300  and  _301
REMARK  118  A    between atoms: _310  and  _312
REMARK  119  A    between atoms: _312  and  _313
REMARK  120  A    between atoms: _312  and  _315
REMARK  121  A    between atoms: _315  and  _316
REMARK  122  A    between atoms: _316  and  _317
REMARK  123  A    between atoms: _317  and  _318
REMARK  124  A    between atoms: _318  and  _319
REMARK  125  A    between atoms: _323  and  _325
REMARK  126  A    between atoms: _325  and  _326
REMARK  127  A    between atoms: _329  and  _331
REMARK  128  A    between atoms: _331  and  _332
REMARK  129  A    between atoms: _331  and  _334
REMARK  130  A    between atoms: _334  and  _335
REMARK  131  A    between atoms: _335  and  _336
REMARK  132  A    between atoms: _339  and  _341
REMARK  133  A    between atoms: _341  and  _342
REMARK  134  A    between atoms: _341  and  _344
REMARK  135  A    between atoms: _344  and  _345
REMARK  136  A    between atoms: _345  and  _346
REMARK  137  A    between atoms: _346  and  _347
REMARK  138  A    between atoms: _356  and  _358
REMARK  139  A    between atoms: _358  and  _359
REMARK  140  A    between atoms: _358  and  _361
REMARK  141  A    between atoms: _361  and  _362
REMARK  142  A    between atoms: _372  and  _374
REMARK  143  A    between atoms: _374  and  _375
REMARK  144  A    between atoms: _378  and  _379
REMARK  145  A    between atoms: _384  and  _386
REMARK  146  A    between atoms: _386  and  _387
REMARK  147  A    between atoms: _386  and  _389
REMARK  148  A    between atoms: _389  and  _390
REMARK  149  A    between atoms: _390  and  _391
REMARK  150  A    between atoms: _391  and  _392
REMARK  151  A    between atoms: _401  and  _403
REMARK  152  A    between atoms: _403  and  _404
REMARK  153  A    between atoms: _403  and  _406
REMARK  154  A    between atoms: _406  and  _407
REMARK  155  A    between atoms: _410  and  _412
REMARK  156  A    between atoms: _412  and  _413
REMARK  157  A    between atoms: _412  and  _415
REMARK  158  A    between atoms: _415  and  _416
REMARK  159  A    between atoms: _419  and  _421
REMARK  160  A    between atoms: _421  and  _422
REMARK  161  A    between atoms: _421  and  _424
REMARK  162  A    between atoms: _424  and  _425
REMARK  163  A    between atoms: _428  and  _430
REMARK  164  A    between atoms: _430  and  _431
REMARK  165  A    between atoms: _430  and  _433
REMARK  166  A    between atoms: _433  and  _434
REMARK  167  A    between atoms: _437  and  _439
REMARK  168  A    between atoms: _439  and  _440
REMARK  169  A    between atoms: _439  and  _442
REMARK  170  A    between atoms: _442  and  _443
REMARK  171  A    between atoms: _446  and  _448
REMARK  172  A    between atoms: _448  and  _449
REMARK  173  A    between atoms: _448  and  _451
REMARK  174  A    between atoms: _451  and  _452
REMARK  175  A    between atoms: _452  and  _453
REMARK  176  A    between atoms: _455  and  _457
REMARK  177  A    between atoms: _457  and  _458
REMARK  178  A    between atoms: _457  and  _460
REMARK  179  A    between atoms: _460  and  _461
REMARK  180  A    between atoms: _464  and  _466
REMARK  181  A    between atoms: _466  and  _467
REMARK  182  A    between atoms: _466  and  _469
REMARK  183  A    between atoms: _469  and  _470
REMARK  184  A    between atoms: _476  and  _478
REMARK  185  A    between atoms: _478  and  _479
REMARK  186  A    between atoms: _478  and  _481
REMARK  187  A    between atoms: _481  and  _482
REMARK  188  A    between atoms: _485  and  _487
REMARK  189  A    between atoms: _487  and  _488
REMARK  190  A    between atoms: _487  and  _490
REMARK  191  A    between atoms: _490  and  _491
REMARK  192  A    between atoms: _496  and  _498
REMARK  193  A    between atoms: _498  and  _499
REMARK  194  A    between atoms: _498  and  _501
REMARK  195  A    between atoms: _501  and  _502
REMARK  196  A    between atoms: _505  and  _507
REMARK  197  A    between atoms: _507  and  _508
REMARK  198  A    between atoms: _507  and  _510
REMARK  199  A    between atoms: _510  and  _511
REMARK  200  A    between atoms: _511  and  _512
REMARK  201  A    between atoms: _515  and  _517
REMARK  202  A    between atoms: _517  and  _518
REMARK  203  A    between atoms: _517  and  _520
REMARK  204  A    between atoms: _520  and  _521
REMARK  205  A    between atoms: _521  and  _522
REMARK  206  A    between atoms: _522  and  _523
REMARK  207  A    between atoms: _532  and  _534
REMARK  208  A    between atoms: _534  and  _535
REMARK  209  A    between atoms: _534  and  _537
REMARK  210  A    between atoms: _537  and  _538
REMARK  211  A    between atoms: _541  and  _543
REMARK  212  A    between atoms: _543  and  _544
REMARK  213  A    between atoms: _543  and  _546
REMARK  214  A    between atoms: _546  and  _547
REMARK  215  A    between atoms: _550  and  _552
REMARK  216  A    between atoms: _552  and  _553
REMARK  217  A    between atoms: _552  and  _555
REMARK  218  A    between atoms: _559  and  _560
REMARK  219  A    between atoms: _565  and  _567
REMARK  220  A    between atoms: _567  and  _568
REMARK  221  A    between atoms: _567  and  _570
REMARK  222  A    between atoms: _570  and  _571
REMARK  223  A    between atoms: _576  and  _578
REMARK  224  A    between atoms: _578  and  _579
REMARK  225  A    between atoms: _578  and  _581
REMARK  226  A    between atoms: _581  and  _582
REMARK  227  A    between atoms: _587  and  _588
REMARK  228  A    between atoms: _590  and  _592
REMARK  229  A    between atoms: _592  and  _593
REMARK  230  A    between atoms: _592  and  _595
REMARK  231  A    between atoms: _595  and  _596
REMARK  232  A    between atoms: _599  and  _601
REMARK  233  A    between atoms: _601  and  _602
REMARK  234  A    between atoms: _601  and  _604
REMARK  235  A    between atoms: _604  and  _605
REMARK  236  A    between atoms: _605  and  _606
REMARK  237  A    between atoms: _608  and  _610
REMARK  238  A    between atoms: _610  and  _611
REMARK  239  A    between atoms: _610  and  _613
REMARK  240  A    between atoms: _613  and  _614
REMARK  241  A    between atoms: _614  and  _615
REMARK  242  A    between atoms: _615  and  _616
REMARK  243  A    between atoms: _625  and  _627
REMARK  244  A    between atoms: _627  and  _628
REMARK  245  A    between atoms: _630  and  _632
REMARK  246  A    between atoms: _632  and  _633
REMARK  247  A    between atoms: _632  and  _635
REMARK  248  A    between atoms: _635  and  _636
REMARK  249  A    between atoms: _642  and  _644
REMARK  250  A    between atoms: _644  and  _645
REMARK  251  A    between atoms: _644  and  _647
REMARK  252  A    between atoms: _647  and  _648
REMARK  253  A    between atoms: _648  and  _649
REMARK  254  A    between atoms: _651  and  _653
REMARK  255  A    between atoms: _653  and  _654
REMARK  256  A    between atoms: _653  and  _656
REMARK  257  A    between atoms: _656  and  _657
REMARK                            x       y       z     vdW  Elec       q    Type
REMARK                         _______ _______ _______ _____ _____    ______ ____
ROOT
ATOM      1  O   HOH     1       3.350  11.921  18.114  0.00  0.00    +0.000 OA
ENDROOT
TORSDOF 0
REMARK  Name = ../refined-set-2016/1ex8/1ex8_pocket.pdb
REMARK  257 active torsions:
REMARK  status: ('A' for Active; 'I' for Inactive)
REMARK    1  A    between atoms: _1  and  _3
REMARK    2  A    between atoms: _3  and  _4
REMARK    3  A    between atoms: _3  and  _6
REMARK    4  A    between atoms: _6  and  _7
REMARK    5  A    between atoms: _12  and  _13
REMARK    6  A    between atoms: _15  and  _17
REMARK    7  A    between atoms: _17  and  _18
REMARK    8  A    between atoms: _17  and  _20
REMARK    9  A    between atoms: _20  and  _21
REMARK   10  A    between atoms: _24  and  _26
REMARK   11  A    between atoms: _26  and  _27
REMARK   12  A    between atoms: _30  and  _32
REMARK   13  A    between atoms: _32  and  _33
REMARK   14  A    between atoms: _32  and  _35
REMARK   15  A    between atoms: _35  and  _36
REMARK   16  A    between atoms: _39  and  _41
REMARK   17  A    between atoms: _41  and  _42
REMARK   18  A    between atoms: _44  and  _46
REMARK   19  A    between atoms: _46  and  _47
REMARK   20  A    between atoms: _46  and  _49
REMARK   21  A    between atoms: _49  and  _50
REMARK   22  A    between atoms: _52  and  _54
REMARK   23  A    between atoms: _54  and  _55
REMARK   24  A    between atoms: _54  and  _57
REMARK   25  A    between atoms: _57  and  _58
REMARK   26  A    between atoms: _63  and  _65
REMARK   27  A    between atoms: _65  and  _66
REMARK   28  A    between atoms: _65  and  _68
REMARK   29  A    between atoms: _68  and  _69
REMARK   30  A    between atoms: _74  and  _75
REMARK   31  A    between atoms: _77  and  _79
REMARK   32  A    between atoms: _79  and  _80
REMARK   33  A    between atoms: _79  and  _82
REMARK   34  A    between atoms: _82  and  _83
REMARK   35  A    between atoms: _83  and  _84
REMARK   36  A    between atoms: _84  and  _85
REMARK   37  A    between atoms: _94  and  _96
REMARK   38  A    between atoms: _96  and  _97
REMARK   39  A    between atoms: _96  and  _99
REMARK   40  A    between atoms: _99  and  _100
REMARK   41  A    between atoms: _104  and  _105
REMARK   42  A    between atoms: _111  and  _112
REMARK   43  A    between atoms: _117  and  _119
REMARK   44  A    between atoms: _119  and  _120
REMARK   45  A    between atoms: _119  and  _122
REMARK   46  A    between atoms: _122  and  _123
REMARK   47  A    between atoms: _126  and  _128
REMARK   48  A    between atoms: _128  and  _129
REMARK   49  A    between atoms: _132  and  _133
REMARK   50  A    between atoms: _138  and  _140
REMARK   51  A    between atoms: _140  and  _141
REMARK   52  A    between atoms: _140  and  _143
REMARK   53  A    between atoms: _143  and  _144
REMARK   54  A    between atoms: _144  and  _145
REMARK   55  A    between atoms: _150  and  _152
REMARK   56  A    between atoms: _152  and  _153
REMARK   57  A    between atoms: _152  and  _155
REMARK   58  A    between atoms: _155  and  _156
REMARK   59  A    between atoms: _156  and  _157
REMARK   60  A    between atoms: _163  and  _164
REMARK   61  A    between atoms: _169  and  _171
REMARK   62  A    between atoms: _171  and  _172
REMARK   63  A    between atoms: _171  and  _174
REMARK   64  A    between atoms: _174  and  _175
REMARK   65  A    between atoms: _178  and  _180
REMARK   66  A    between atoms: _180  and  _181
REMARK   67  A    between atoms: _180  and  _183
REMARK   68  A    between atoms: _183  and  _184
REMARK   69  A    between atoms: _189  and  _190
REMARK   70  A    between atoms: _192  and  _194
REMARK   71  A    between atoms: _194  and  _195
REMARK   72  A    between atoms: _194  and  _197
REMARK   73  A    between atoms: _197  and  _198
REMARK   74  A    between atoms: _201  and  _203
REMARK   75  A    between atoms: _203  and  _204
REMARK   76  A    between atoms: _203  and  _206
REMARK   77  A    between atoms: _206  and  _207
REMARK   78  A    between atoms: _212  and  _214
REMARK   79  A    between atoms: _214  and  _215
REMARK   80  A    between atoms: _218  and  _220
REMARK   81  A    between atoms: _220  and  _221
REMARK   82  A    between atoms: _220  and  _223
REMARK   83  A    between atoms: _223  and  _224
REMARK   84  A    between atoms: _224  and  _225
REMARK   85  A    between atoms: _228  and  _230
REMARK   86  A    between atoms: _230  and  _231
REMARK   87  A    between atoms: _230  and  _233
REMARK   88  A    between atoms: _233  and  _234
REMARK   89  A    between atoms: _237  and  _239
REMARK   90  A    between atoms: _239  and  _240
REMARK   91  A    between atoms: _239  and  _242
REMARK   92  A    between atoms: _242  and  _243
REMARK   93  A    between atoms: _246  and  _248
REMARK   94  A    between atoms: _248  and  _249
REMARK   95  A    between atoms: _248  and  _251
REMARK   96  A    between atoms: _251  and  _252
REMARK   97  A    between atoms: _252  and  _253
REMARK   98  A    between atoms: _258  and  _260
REMARK   99  A    between atoms: _260  and  _261
REMARK  100  A    between atoms: _260  and  _263
REMARK  101  A    between atoms: _263  and  _264
REMARK  102  A    between atoms: _264  and  _265
REMARK  103  A    between atoms: _268  and  _270
REMARK  104  A    between atoms: _270  and  _271
REMARK  105  A    between atoms: _270  and  _273
REMARK  106  A    between atoms: _273  and  _274
REMARK  107  A    between atoms: _274  and  _275
REMARK  108  A    between atoms: _275  and  _276
REMARK  109  A    between atoms: _285  and  _287
REMARK  110  A    between atoms: _287  and  _288
REMARK  111  A    between atoms: _287  and  _290
REMARK  112  A    between atoms: _293  and  _295
REMARK  113  A    between atoms: _295  and  _296
REMARK  114  A    between atoms: _295  and  _298
REMARK  115  A    between atoms: _298  and  _299
REMARK  116  A    between atoms: _299  and  _300
REMARK  117  A    between atoms: _300  and  _301
REMARK  118  A    between atoms: _310  and  _312
REMARK  119  A    between atoms: _312  and  _313
REMARK  120  A    between atoms: _312  and  _315
REMARK  121  A    between atoms: _315  and  _316
REMARK  122  A    between atoms: _316  and  _317
REMARK  123  A    between atoms: _317  and  _318
REMARK  124  A    between atoms: _318  and  _319
REMARK  125  A    between atoms: _323  and  _325
REMARK  126  A    between atoms: _325  and  _326
REMARK  127  A    between atoms: _329  and  _331
REMARK  128  A    between atoms: _331  and  _332
REMARK  129  A    between atoms: _331  and  _334
REMARK  130  A    between atoms: _334  and  _335
REMARK  131  A    between atoms: _335  and  _336
REMARK  132  A    between atoms: _339  and  _341
REMARK  133  A    between atoms: _341  and  _342
REMARK  134  A    between atoms: _341  and  _344
REMARK  135  A    between atoms: _344  and  _345
REMARK  136  A    between atoms: _345  and  _346
REMARK  137  A    between atoms: _346  and  _347
REMARK  138  A    between atoms: _356  and  _358
REMARK  139  A    between atoms: _358  and  _359
REMARK  140  A    between atoms: _358  and  _361
REMARK  141  A    between atoms: _361  and  _362
REMARK  142  A    between atoms: _372  and  _374
REMARK  143  A    between atoms: _374  and  _375
REMARK  144  A    between atoms: _378  and  _379
REMARK  145  A    between atoms: _384  and  _386
REMARK  146  A    between atoms: _386  and  _387
REMARK  147  A    between atoms: _386  and  _389
REMARK  148  A    between atoms: _389  and  _390
REMARK  149  A    between atoms: _390  and  _391
REMARK  150  A    between atoms: _391  and  _392
REMARK  151  A    between atoms: _401  and  _403
REMARK  152  A    between atoms: _403  and  _404
REMARK  153  A    between atoms: _403  and  _406
REMARK  154  A    between atoms: _406  and  _407
REMARK  155  A    between atoms: _410  and  _412
REMARK  156  A    between atoms: _412  and  _413
REMARK  157  A    between atoms: _412  and  _415
REMARK  158  A    between atoms: _415  and  _416
REMARK  159  A    between atoms: _419  and  _421
REMARK  160  A    between atoms: _421  and  _422
REMARK  161  A    between atoms: _421  and  _424
REMARK  162  A    between atoms: _424  and  _425
REMARK  163  A    between atoms: _428  and  _430
REMARK  164  A    between atoms: _430  and  _431
REMARK  165  A    between atoms: _430  and  _433
REMARK  166  A    between atoms: _433  and  _434
REMARK  167  A    between atoms: _437  and  _439
REMARK  168  A    between atoms: _439  and  _440
REMARK  169  A    between atoms: _439  and  _442
REMARK  170  A    between atoms: _442  and  _443
REMARK  171  A    between atoms: _446  and  _448
REMARK  172  A    between atoms: _448  and  _449
REMARK  173  A    between atoms: _448  and  _451
REMARK  174  A    between atoms: _451  and  _452
REMARK  175  A    between atoms: _452  and  _453
REMARK  176  A    between atoms: _455  and  _457
REMARK  177  A    between atoms: _457  and  _458
REMARK  178  A    between atoms: _457  and  _460
REMARK  179  A    between atoms: _460  and  _461
REMARK  180  A    between atoms: _464  and  _466
REMARK  181  A    between atoms: _466  and  _467
REMARK  182  A    between atoms: _466  and  _469
REMARK  183  A    between atoms: _469  and  _470
REMARK  184  A    between atoms: _476  and  _478
REMARK  185  A    between atoms: _478  and  _479
REMARK  186  A    between atoms: _478  and  _481
REMARK  187  A    between atoms: _481  and  _482
REMARK  188  A    between atoms: _485  and  _487
REMARK  189  A    between atoms: _487  and  _488
REMARK  190  A    between atoms: _487  and  _490
REMARK  191  A    between atoms: _490  and  _491
REMARK  192  A    between atoms: _496  and  _498
REMARK  193  A    between atoms: _498  and  _499
REMARK  194  A    between atoms: _498  and  _501
REMARK  195  A    between atoms: _501  and  _502
REMARK  196  A    between atoms: _505  and  _507
REMARK  197  A    between atoms: _507  and  _508
REMARK  198  A    between atoms: _507  and  _510
REMARK  199  A    between atoms: _510  and  _511
REMARK  200  A    between atoms: _511  and  _512
REMARK  201  A    between atoms: _515  and  _517
REMARK  202  A    between atoms: _517  and  _518
REMARK  203  A    between atoms: _517  and  _520
REMARK  204  A    between atoms: _520  and  _521
REMARK  205  A    between atoms: _521  and  _522
REMARK  206  A    between atoms: _522  and  _523
REMARK  207  A    between atoms: _532  and  _534
REMARK  208  A    between atoms: _534  and  _535
REMARK  209  A    between atoms: _534  and  _537
REMARK  210  A    between atoms: _537  and  _538
REMARK  211  A    between atoms: _541  and  _543
REMARK  212  A    between atoms: _543  and  _544
REMARK  213  A    between atoms: _543  and  _546
REMARK  214  A    between atoms: _546  and  _547
REMARK  215  A    between atoms: _550  and  _552
REMARK  216  A    between atoms: _552  and  _553
REMARK  217  A    between atoms: _552  and  _555
REMARK  218  A    between atoms: _559  and  _560
REMARK  219  A    between atoms: _565  and  _567
REMARK  220  A    between atoms: _567  and  _568
REMARK  221  A    between atoms: _567  and  _570
REMARK  222  A    between atoms: _570  and  _571
REMARK  223  A    between atoms: _576  and  _578
REMARK  224  A    between atoms: _578  and  _579
REMARK  225  A    between atoms: _578  and  _581
REMARK  226  A    between atoms: _581  and  _582
REMARK  227  A    between atoms: _587  and  _588
REMARK  228  A    between atoms: _590  and  _592
REMARK  229  A    between atoms: _592  and  _593
REMARK  230  A    between atoms: _592  and  _595
REMARK  231  A    between atoms: _595  and  _596
REMARK  232  A    between atoms: _599  and  _601
REMARK  233  A    between atoms: _601  and  _602
REMARK  234  A    between atoms: _601  and  _604
REMARK  235  A    between atoms: _604  and  _605
REMARK  236  A    between atoms: _605  and  _606
REMARK  237  A    between atoms: _608  and  _610
REMARK  238  A    between atoms: _610  and  _611
REMARK  239  A    between atoms: _610  and  _613
REMARK  240  A    between atoms: _613  and  _614
REMARK  241  A    between atoms: _614  and  _615
REMARK  242  A    between atoms: _615  and  _616
REMARK  243  A    between atoms: _625  and  _627
REMARK  244  A    between atoms: _627  and  _628
REMARK  245  A    between atoms: _630  and  _632
REMARK  246  A    between atoms: _632  and  _633
REMARK  247  A    between atoms: _632  and  _635
REMARK  248  A    between atoms: _635  and  _636
REMARK  249  A    between atoms: _642  and  _644
REMARK  250  A    between atoms: _644  and  _645
REMARK  251  A    between atoms: _644  and  _647
REMARK  252  A    between atoms: _647  and  _648
REMARK  253  A    between atoms: _648  and  _649
REMARK  254  A    between atoms: _651  and  _653
REMARK  255  A    between atoms: _653  and  _654
REMARK  256  A    between atoms: _653  and  _656
REMARK  257  A    between atoms: _656  and  _657
REMARK                            x       y       z     vdW  Elec       q    Type
REMARK                         _______ _______ _______ _____ _____    ______ ____
ROOT
ATOM      1  O   HOH     1       0.002  18.905  21.970  0.00  0.00    +0.000 OA
ENDROOT
TORSDOF 0
REMARK  Name = ../refined-set-2016/1ex8/1ex8_pocket.pdb
REMARK  257 active torsions:
REMARK  status: ('A' for Active; 'I' for Inactive)
REMARK    1  A    between atoms: _1  and  _3
REMARK    2  A    between atoms: _3  and  _4
REMARK    3  A    between atoms: _3  and  _6
REMARK    4  A    between atoms: _6  and  _7
REMARK    5  A    between atoms: _12  and  _13
REMARK    6  A    between atoms: _15  and  _17
REMARK    7  A    between atoms: _17  and  _18
REMARK    8  A    between atoms: _17  and  _20
REMARK    9  A    between atoms: _20  and  _21
REMARK   10  A    between atoms: _24  and  _26
REMARK   11  A    between atoms: _26  and  _27
REMARK   12  A    between atoms: _30  and  _32
REMARK   13  A    between atoms: _32  and  _33
REMARK   14  A    between atoms: _32  and  _35
REMARK   15  A    between atoms: _35  and  _36
REMARK   16  A    between atoms: _39  and  _41
REMARK   17  A    between atoms: _41  and  _42
REMARK   18  A    between atoms: _44  and  _46
REMARK   19  A    between atoms: _46  and  _47
REMARK   20  A    between atoms: _46  and  _49
REMARK   21  A    between atoms: _49  and  _50
REMARK   22  A    between atoms: _52  and  _54
REMARK   23  A    between atoms: _54  and  _55
REMARK   24  A    between atoms: _54  and  _57
REMARK   25  A    between atoms: _57  and  _58
REMARK   26  A    between atoms: _63  and  _65
REMARK   27  A    between atoms: _65  and  _66
REMARK   28  A    between atoms: _65  and  _68
REMARK   29  A    between atoms: _68  and  _69
REMARK   30  A    between atoms: _74  and  _75
REMARK   31  A    between atoms: _77  and  _79
REMARK   32  A    between atoms: _79  and  _80
REMARK   33  A    between atoms: _79  and  _82
REMARK   34  A    between atoms: _82  and  _83
REMARK   35  A    between atoms: _83  and  _84
REMARK   36  A    between atoms: _84  and  _85
REMARK   37  A    between atoms: _94  and  _96
REMARK   38  A    between atoms: _96  and  _97
REMARK   39  A    between atoms: _96  and  _99
REMARK   40  A    between atoms: _99  and  _100
REMARK   41  A    between atoms: _104  and  _105
REMARK   42  A    between atoms: _111  and  _112
REMARK   43  A    between atoms: _117  and  _119
REMARK   44  A    between atoms: _119  and  _120
REMARK   45  A    between atoms: _119  and  _122
REMARK   46  A    between atoms: _122  and  _123
REMARK   47  A    between atoms: _126  and  _128
REMARK   48  A    between atoms: _128  and  _129
REMARK   49  A    between atoms: _132  and  _133
REMARK   50  A    between atoms: _138  and  _140
REMARK   51  A    between atoms: _140  and  _141
REMARK   52  A    between atoms: _140  and  _143
REMARK   53  A    between atoms: _143  and  _144
REMARK   54  A    between atoms: _144  and  _145
REMARK   55  A    between atoms: _150  and  _152
REMARK   56  A    between atoms: _152  and  _153
REMARK   57  A    between atoms: _152  and  _155
REMARK   58  A    between atoms: _155  and  _156
REMARK   59  A    between atoms: _156  and  _157
REMARK   60  A    between atoms: _163  and  _164
REMARK   61  A    between atoms: _169  and  _171
REMARK   62  A    between atoms: _171  and  _172
REMARK   63  A    between atoms: _171  and  _174
REMARK   64  A    between atoms: _174  and  _175
REMARK   65  A    between atoms: _178  and  _180
REMARK   66  A    between atoms: _180  and  _181
REMARK   67  A    between atoms: _180  and  _183
REMARK   68  A    between atoms: _183  and  _184
REMARK   69  A    between atoms: _189  and  _190
REMARK   70  A    between atoms: _192  and  _194
REMARK   71  A    between atoms: _194  and  _195
REMARK   72  A    between atoms: _194  and  _197
REMARK   73  A    between atoms: _197  and  _198
REMARK   74  A    between atoms: _201  and  _203
REMARK   75  A    between atoms: _203  and  _204
REMARK   76  A    between atoms: _203  and  _206
REMARK   77  A    between atoms: _206  and  _207
REMARK   78  A    between atoms: _212  and  _214
REMARK   79  A    between atoms: _214  and  _215
REMARK   80  A    between atoms: _218  and  _220
REMARK   81  A    between atoms: _220  and  _221
REMARK   82  A    between atoms: _220  and  _223
REMARK   83  A    between atoms: _223  and  _224
REMARK   84  A    between atoms: _224  and  _225
REMARK   85  A    between atoms: _228  and  _230
REMARK   86  A    between atoms: _230  and  _231
REMARK   87  A    between atoms: _230  and  _233
REMARK   88  A    between atoms: _233  and  _234
REMARK   89  A    between atoms: _237  and  _239
REMARK   90  A    between atoms: _239  and  _240
REMARK   91  A    between atoms: _239  and  _242
REMARK   92  A    between atoms: _242  and  _243
REMARK   93  A    between atoms: _246  and  _248
REMARK   94  A    between atoms: _248  and  _249
REMARK   95  A    between atoms: _248  and  _251
REMARK   96  A    between atoms: _251  and  _252
REMARK   97  A    between atoms: _252  and  _253
REMARK   98  A    between atoms: _258  and  _260
REMARK   99  A    between atoms: _260  and  _261
REMARK  100  A    between atoms: _260  and  _263
REMARK  101  A    between atoms: _263  and  _264
REMARK  102  A    between atoms: _264  and  _265
REMARK  103  A    between atoms: _268  and  _270
REMARK  104  A    between atoms: _270  and  _271
REMARK  105  A    between atoms: _270  and  _273
REMARK  106  A    between atoms: _273  and  _274
REMARK  107  A    between atoms: _274  and  _275
REMARK  108  A    between atoms: _275  and  _276
REMARK  109  A    between atoms: _285  and  _287
REMARK  110  A    between atoms: _287  and  _288
REMARK  111  A    between atoms: _287  and  _290
REMARK  112  A    between atoms: _293  and  _295
REMARK  113  A    between atoms: _295  and  _296
REMARK  114  A    between atoms: _295  and  _298
REMARK  115  A    between atoms: _298  and  _299
REMARK  116  A    between atoms: _299  and  _300
REMARK  117  A    between atoms: _300  and  _301
REMARK  118  A    between atoms: _310  and  _312
REMARK  119  A    between atoms: _312  and  _313
REMARK  120  A    between atoms: _312  and  _315
REMARK  121  A    between atoms: _315  and  _316
REMARK  122  A    between atoms: _316  and  _317
REMARK  123  A    between atoms: _317  and  _318
REMARK  124  A    between atoms: _318  and  _319
REMARK  125  A    between atoms: _323  and  _325
REMARK  126  A    between atoms: _325  and  _326
REMARK  127  A    between atoms: _329  and  _331
REMARK  128  A    between atoms: _331  and  _332
REMARK  129  A    between atoms: _331  and  _334
REMARK  130  A    between atoms: _334  and  _335
REMARK  131  A    between atoms: _335  and  _336
REMARK  132  A    between atoms: _339  and  _341
REMARK  133  A    between atoms: _341  and  _342
REMARK  134  A    between atoms: _341  and  _344
REMARK  135  A    between atoms: _344  and  _345
REMARK  136  A    between atoms: _345  and  _346
REMARK  137  A    between atoms: _346  and  _347
REMARK  138  A    between atoms: _356  and  _358
REMARK  139  A    between atoms: _358  and  _359
REMARK  140  A    between atoms: _358  and  _361
REMARK  141  A    between atoms: _361  and  _362
REMARK  142  A    between atoms: _372  and  _374
REMARK  143  A    between atoms: _374  and  _375
REMARK  144  A    between atoms: _378  and  _379
REMARK  145  A    between atoms: _384  and  _386
REMARK  146  A    between atoms: _386  and  _387
REMARK  147  A    between atoms: _386  and  _389
REMARK  148  A    between atoms: _389  and  _390
REMARK  149  A    between atoms: _390  and  _391
REMARK  150  A    between atoms: _391  and  _392
REMARK  151  A    between atoms: _401  and  _403
REMARK  152  A    between atoms: _403  and  _404
REMARK  153  A    between atoms: _403  and  _406
REMARK  154  A    between atoms: _406  and  _407
REMARK  155  A    between atoms: _410  and  _412
REMARK  156  A    between atoms: _412  and  _413
REMARK  157  A    between atoms: _412  and  _415
REMARK  158  A    between atoms: _415  and  _416
REMARK  159  A    between atoms: _419  and  _421
REMARK  160  A    between atoms: _421  and  _422
REMARK  161  A    between atoms: _421  and  _424
REMARK  162  A    between atoms: _424  and  _425
REMARK  163  A    between atoms: _428  and  _430
REMARK  164  A    between atoms: _430  and  _431
REMARK  165  A    between atoms: _430  and  _433
REMARK  166  A    between atoms: _433  and  _434
REMARK  167  A    between atoms: _437  and  _439
REMARK  168  A    between atoms: _439  and  _440
REMARK  169  A    between atoms: _439  and  _442
REMARK  170  A    between atoms: _442  and  _443
REMARK  171  A    between atoms: _446  and  _448
REMARK  172  A    between atoms: _448  and  _449
REMARK  173  A    between atoms: _448  and  _451
REMARK  174  A    between atoms: _451  and  _452
REMARK  175  A    between atoms: _452  and  _453
REMARK  176  A    between atoms: _455  and  _457
REMARK  177  A    between atoms: _457  and  _458
REMARK  178  A    between atoms: _457  and  _460
REMARK  179  A    between atoms: _460  and  _461
REMARK  180  A    between atoms: _464  and  _466
REMARK  181  A    between atoms: _466  and  _467
REMARK  182  A    between atoms: _466  and  _469
REMARK  183  A    between atoms: _469  and  _470
REMARK  184  A    between atoms: _476  and  _478
REMARK  185  A    between atoms: _478  and  _479
REMARK  186  A    between atoms: _478  and  _481
REMARK  187  A    between atoms: _481  and  _482
REMARK  188  A    between atoms: _485  and  _487
REMARK  189  A    between atoms: _487  and  _488
REMARK  190  A    between atoms: _487  and  _490
REMARK  191  A    between atoms: _490  and  _491
REMARK  192  A    between atoms: _496  and  _498
REMARK  193  A    between atoms: _498  and  _499
REMARK  194  A    between atoms: _498  and  _501
REMARK  195  A    between atoms: _501  and  _502
REMARK  196  A    between atoms: _505  and  _507
REMARK  197  A    between atoms: _507  and  _508
REMARK  198  A    between atoms: _507  and  _510
REMARK  199  A    between atoms: _510  and  _511
REMARK  200  A    between atoms: _511  and  _512
REMARK  201  A    between atoms: _515  and  _517
REMARK  202  A    between atoms: _517  and  _518
REMARK  203  A    between atoms: _517  and  _520
REMARK  204  A    between atoms: _520  and  _521
REMARK  205  A    between atoms: _521  and  _522
REMARK  206  A    between atoms: _522  and  _523
REMARK  207  A    between atoms: _532  and  _534
REMARK  208  A    between atoms: _534  and  _535
REMARK  209  A    between atoms: _534  and  _537
REMARK  210  A    between atoms: _537  and  _538
REMARK  211  A    between atoms: _541  and  _543
REMARK  212  A    between atoms: _543  and  _544
REMARK  213  A    between atoms: _543  and  _546
REMARK  214  A    between atoms: _546  and  _547
REMARK  215  A    between atoms: _550  and  _552
REMARK  216  A    between atoms: _552  and  _553
REMARK  217  A    between atoms: _552  and  _555
REMARK  218  A    between atoms: _559  and  _560
REMARK  219  A    between atoms: _565  and  _567
REMARK  220  A    between atoms: _567  and  _568
REMARK  221  A    between atoms: _567  and  _570
REMARK  222  A    between atoms: _570  and  _571
REMARK  223  A    between atoms: _576  and  _578
REMARK  224  A    between atoms: _578  and  _579
REMARK  225  A    between atoms: _578  and  _581
REMARK  226  A    between atoms: _581  and  _582
REMARK  227  A    between atoms: _587  and  _588
REMARK  228  A    between atoms: _590  and  _592
REMARK  229  A    between atoms: _592  and  _593
REMARK  230  A    between atoms: _592  and  _595
REMARK  231  A    between atoms: _595  and  _596
REMARK  232  A    between atoms: _599  and  _601
REMARK  233  A    between atoms: _601  and  _602
REMARK  234  A    between atoms: _601  and  _604
REMARK  235  A    between atoms: _604  and  _605
REMARK  236  A    between atoms: _605  and  _606
REMARK  237  A    between atoms: _608  and  _610
REMARK  238  A    between atoms: _610  and  _611
REMARK  239  A    between atoms: _610  and  _613
REMARK  240  A    between atoms: _613  and  _614
REMARK  241  A    between atoms: _614  and  _615
REMARK  242  A    between atoms: _615  and  _616
REMARK  243  A    between atoms: _625  and  _627
REMARK  244  A    between atoms: _627  and  _628
REMARK  245  A    between atoms: _630  and  _632
REMARK  246  A    between atoms: _632  and  _633
REMARK  247  A    between atoms: _632  and  _635
REMARK  248  A    between atoms: _635  and  _636
REMARK  249  A    between atoms: _642  and  _644
REMARK  250  A    between atoms: _644  and  _645
REMARK  251  A    between atoms: _644  and  _647
REMARK  252  A    between atoms: _647  and  _648
REMARK  253  A    between atoms: _648  and  _649
REMARK  254  A    between atoms: _651  and  _653
REMARK  255  A    between atoms: _653  and  _654
REMARK  256  A    between atoms: _653  and  _656
REMARK  257  A    between atoms: _656  and  _657
REMARK                            x       y       z     vdW  Elec       q    Type
REMARK                         _______ _______ _______ _____ _____    ______ ____
ROOT
ATOM      1  O   HOH     1      10.903  30.988   7.224  0.00  0.00    +0.000 OA
ENDROOT
TORSDOF 0
REMARK  Name = ../refined-set-2016/1ex8/1ex8_pocket.pdb
REMARK  257 active torsions:
REMARK  status: ('A' for Active; 'I' for Inactive)
REMARK    1  A    between atoms: _1  and  _3
REMARK    2  A    between atoms: _3  and  _4
REMARK    3  A    between atoms: _3  and  _6
REMARK    4  A    between atoms: _6  and  _7
REMARK    5  A    between atoms: _12  and  _13
REMARK    6  A    between atoms: _15  and  _17
REMARK    7  A    between atoms: _17  and  _18
REMARK    8  A    between atoms: _17  and  _20
REMARK    9  A    between atoms: _20  and  _21
REMARK   10  A    between atoms: _24  and  _26
REMARK   11  A    between atoms: _26  and  _27
REMARK   12  A    between atoms: _30  and  _32
REMARK   13  A    between atoms: _32  and  _33
REMARK   14  A    between atoms: _32  and  _35
REMARK   15  A    between atoms: _35  and  _36
REMARK   16  A    between atoms: _39  and  _41
REMARK   17  A    between atoms: _41  and  _42
REMARK   18  A    between atoms: _44  and  _46
REMARK   19  A    between atoms: _46  and  _47
REMARK   20  A    between atoms: _46  and  _49
REMARK   21  A    between atoms: _49  and  _50
REMARK   22  A    between atoms: _52  and  _54
REMARK   23  A    between atoms: _54  and  _55
REMARK   24  A    between atoms: _54  and  _57
REMARK   25  A    between atoms: _57  and  _58
REMARK   26  A    between atoms: _63  and  _65
REMARK   27  A    between atoms: _65  and  _66
REMARK   28  A    between atoms: _65  and  _68
REMARK   29  A    between atoms: _68  and  _69
REMARK   30  A    between atoms: _74  and  _75
REMARK   31  A    between atoms: _77  and  _79
REMARK   32  A    between atoms: _79  and  _80
REMARK   33  A    between atoms: _79  and  _82
REMARK   34  A    between atoms: _82  and  _83
REMARK   35  A    between atoms: _83  and  _84
REMARK   36  A    between atoms: _84  and  _85
REMARK   37  A    between atoms: _94  and  _96
REMARK   38  A    between atoms: _96  and  _97
REMARK   39  A    between atoms: _96  and  _99
REMARK   40  A    between atoms: _99  and  _100
REMARK   41  A    between atoms: _104  and  _105
REMARK   42  A    between atoms: _111  and  _112
REMARK   43  A    between atoms: _117  and  _119
REMARK   44  A    between atoms: _119  and  _120
REMARK   45  A    between atoms: _119  and  _122
REMARK   46  A    between atoms: _122  and  _123
REMARK   47  A    between atoms: _126  and  _128
REMARK   48  A    between atoms: _128  and  _129
REMARK   49  A    between atoms: _132  and  _133
REMARK   50  A    between atoms: _138  and  _140
REMARK   51  A    between atoms: _140  and  _141
REMARK   52  A    between atoms: _140  and  _143
REMARK   53  A    between atoms: _143  and  _144
REMARK   54  A    between atoms: _144  and  _145
REMARK   55  A    between atoms: _150  and  _152
REMARK   56  A    between atoms: _152  and  _153
REMARK   57  A    between atoms: _152  and  _155
REMARK   58  A    between atoms: _155  and  _156
REMARK   59  A    between atoms: _156  and  _157
REMARK   60  A    between atoms: _163  and  _164
REMARK   61  A    between atoms: _169  and  _171
REMARK   62  A    between atoms: _171  and  _172
REMARK   63  A    between atoms: _171  and  _174
REMARK   64  A    between atoms: _174  and  _175
REMARK   65  A    between atoms: _178  and  _180
REMARK   66  A    between atoms: _180  and  _181
REMARK   67  A    between atoms: _180  and  _183
REMARK   68  A    between atoms: _183  and  _184
REMARK   69  A    between atoms: _189  and  _190
REMARK   70  A    between atoms: _192  and  _194
REMARK   71  A    between atoms: _194  and  _195
REMARK   72  A    between atoms: _194  and  _197
REMARK   73  A    between atoms: _197  and  _198
REMARK   74  A    between atoms: _201  and  _203
REMARK   75  A    between atoms: _203  and  _204
REMARK   76  A    between atoms: _203  and  _206
REMARK   77  A    between atoms: _206  and  _207
REMARK   78  A    between atoms: _212  and  _214
REMARK   79  A    between atoms: _214  and  _215
REMARK   80  A    between atoms: _218  and  _220
REMARK   81  A    between atoms: _220  and  _221
REMARK   82  A    between atoms: _220  and  _223
REMARK   83  A    between atoms: _223  and  _224
REMARK   84  A    between atoms: _224  and  _225
REMARK   85  A    between atoms: _228  and  _230
REMARK   86  A    between atoms: _230  and  _231
REMARK   87  A    between atoms: _230  and  _233
REMARK   88  A    between atoms: _233  and  _234
REMARK   89  A    between atoms: _237  and  _239
REMARK   90  A    between atoms: _239  and  _240
REMARK   91  A    between atoms: _239  and  _242
REMARK   92  A    between atoms: _242  and  _243
REMARK   93  A    between atoms: _246  and  _248
REMARK   94  A    between atoms: _248  and  _249
REMARK   95  A    between atoms: _248  and  _251
REMARK   96  A    between atoms: _251  and  _252
REMARK   97  A    between atoms: _252  and  _253
REMARK   98  A    between atoms: _258  and  _260
REMARK   99  A    between atoms: _260  and  _261
REMARK  100  A    between atoms: _260  and  _263
REMARK  101  A    between atoms: _263  and  _264
REMARK  102  A    between atoms: _264  and  _265
REMARK  103  A    between atoms: _268  and  _270
REMARK  104  A    between atoms: _270  and  _271
REMARK  105  A    between atoms: _270  and  _273
REMARK  106  A    between atoms: _273  and  _274
REMARK  107  A    between atoms: _274  and  _275
REMARK  108  A    between atoms: _275  and  _276
REMARK  109  A    between atoms: _285  and  _287
REMARK  110  A    between atoms: _287  and  _288
REMARK  111  A    between atoms: _287  and  _290
REMARK  112  A    between atoms: _293  and  _295
REMARK  113  A    between atoms: _295  and  _296
REMARK  114  A    between atoms: _295  and  _298
REMARK  115  A    between atoms: _298  and  _299
REMARK  116  A    between atoms: _299  and  _300
REMARK  117  A    between atoms: _300  and  _301
REMARK  118  A    between atoms: _310  and  _312
REMARK  119  A    between atoms: _312  and  _313
REMARK  120  A    between atoms: _312  and  _315
REMARK  121  A    between atoms: _315  and  _316
REMARK  122  A    between atoms: _316  and  _317
REMARK  123  A    between atoms: _317  and  _318
REMARK  124  A    between atoms: _318  and  _319
REMARK  125  A    between atoms: _323  and  _325
REMARK  126  A    between atoms: _325  and  _326
REMARK  127  A    between atoms: _329  and  _331
REMARK  128  A    between atoms: _331  and  _332
REMARK  129  A    between atoms: _331  and  _334
REMARK  130  A    between atoms: _334  and  _335
REMARK  131  A    between atoms: _335  and  _336
REMARK  132  A    between atoms: _339  and  _341
REMARK  133  A    between atoms: _341  and  _342
REMARK  134  A    between atoms: _341  and  _344
REMARK  135  A    between atoms: _344  and  _345
REMARK  136  A    between atoms: _345  and  _346
REMARK  137  A    between atoms: _346  and  _347
REMARK  138  A    between atoms: _356  and  _358
REMARK  139  A    between atoms: _358  and  _359
REMARK  140  A    between atoms: _358  and  _361
REMARK  141  A    between atoms: _361  and  _362
REMARK  142  A    between atoms: _372  and  _374
REMARK  143  A    between atoms: _374  and  _375
REMARK  144  A    between atoms: _378  and  _379
REMARK  145  A    between atoms: _384  and  _386
REMARK  146  A    between atoms: _386  and  _387
REMARK  147  A    between atoms: _386  and  _389
REMARK  148  A    between atoms: _389  and  _390
REMARK  149  A    between atoms: _390  and  _391
REMARK  150  A    between atoms: _391  and  _392
REMARK  151  A    between atoms: _401  and  _403
REMARK  152  A    between atoms: _403  and  _404
REMARK  153  A    between atoms: _403  and  _406
REMARK  154  A    between atoms: _406  and  _407
REMARK  155  A    between atoms: _410  and  _412
REMARK  156  A    between atoms: _412  and  _413
REMARK  157  A    between atoms: _412  and  _415
REMARK  158  A    between atoms: _415  and  _416
REMARK  159  A    between atoms: _419  and  _421
REMARK  160  A    between atoms: _421  and  _422
REMARK  161  A    between atoms: _421  and  _424
REMARK  162  A    between atoms: _424  and  _425
REMARK  163  A    between atoms: _428  and  _430
REMARK  164  A    between atoms: _430  and  _431
REMARK  165  A    between atoms: _430  and  _433
REMARK  166  A    between atoms: _433  and  _434
REMARK  167  A    between atoms: _437  and  _439
REMARK  168  A    between atoms: _439  and  _440
REMARK  169  A    between atoms: _439  and  _442
REMARK  170  A    between atoms: _442  and  _443
REMARK  171  A    between atoms: _446  and  _448
REMARK  172  A    between atoms: _448  and  _449
REMARK  173  A    between atoms: _448  and  _451
REMARK  174  A    between atoms: _451  and  _452
REMARK  175  A    between atoms: _452  and  _453
REMARK  176  A    between atoms: _455  and  _457
REMARK  177  A    between atoms: _457  and  _458
REMARK  178  A    between atoms: _457  and  _460
REMARK  179  A    between atoms: _460  and  _461
REMARK  180  A    between atoms: _464  and  _466
REMARK  181  A    between atoms: _466  and  _467
REMARK  182  A    between atoms: _466  and  _469
REMARK  183  A    between atoms: _469  and  _470
REMARK  184  A    between atoms: _476  and  _478
REMARK  185  A    between atoms: _478  and  _479
REMARK  186  A    between atoms: _478  and  _481
REMARK  187  A    between atoms: _481  and  _482
REMARK  188  A    between atoms: _485  and  _487
REMARK  189  A    between atoms: _487  and  _488
REMARK  190  A    between atoms: _487  and  _490
REMARK  191  A    between atoms: _490  and  _491
REMARK  192  A    between atoms: _496  and  _498
REMARK  193  A    between atoms: _498  and  _499
REMARK  194  A    between atoms: _498  and  _501
REMARK  195  A    between atoms: _501  and  _502
REMARK  196  A    between atoms: _505  and  _507
REMARK  197  A    between atoms: _507  and  _508
REMARK  198  A    between atoms: _507  and  _510
REMARK  199  A    between atoms: _510  and  _511
REMARK  200  A    between atoms: _511  and  _512
REMARK  201  A    between atoms: _515  and  _517
REMARK  202  A    between atoms: _517  and  _518
REMARK  203  A    between atoms: _517  and  _520
REMARK  204  A    between atoms: _520  and  _521
REMARK  205  A    between atoms: _521  and  _522
REMARK  206  A    between atoms: _522  and  _523
REMARK  207  A    between atoms: _532  and  _534
REMARK  208  A    between atoms: _534  and  _535
REMARK  209  A    between atoms: _534  and  _537
REMARK  210  A    between atoms: _537  and  _538
REMARK  211  A    between atoms: _541  and  _543
REMARK  212  A    between atoms: _543  and  _544
REMARK  213  A    between atoms: _543  and  _546
REMARK  214  A    between atoms: _546  and  _547
REMARK  215  A    between atoms: _550  and  _552
REMARK  216  A    between atoms: _552  and  _553
REMARK  217  A    between atoms: _552  and  _555
REMARK  218  A    between atoms: _559  and  _560
REMARK  219  A    between atoms: _565  and  _567
REMARK  220  A    between atoms: _567  and  _568
REMARK  221  A    between atoms: _567  and  _570
REMARK  222  A    between atoms: _570  and  _571
REMARK  223  A    between atoms: _576  and  _578
REMARK  224  A    between atoms: _578  and  _579
REMARK  225  A    between atoms: _578  and  _581
REMARK  226  A    between atoms: _581  and  _582
REMARK  227  A    between atoms: _587  and  _588
REMARK  228  A    between atoms: _590  and  _592
REMARK  229  A    between atoms: _592  and  _593
REMARK  230  A    between atoms: _592  and  _595
REMARK  231  A    between atoms: _595  and  _596
REMARK  232  A    between atoms: _599  and  _601
REMARK  233  A    between atoms: _601  and  _602
REMARK  234  A    between atoms: _601  and  _604
REMARK  235  A    between atoms: _604  and  _605
REMARK  236  A    between atoms: _605  and  _606
REMARK  237  A    between atoms: _608  and  _610
REMARK  238  A    between atoms: _610  and  _611
REMARK  239  A    between atoms: _610  and  _613
REMARK  240  A    between atoms: _613  and  _614
REMARK  241  A    between atoms: _614  and  _615
REMARK  242  A    between atoms: _615  and  _616
REMARK  243  A    between atoms: _625  and  _627
REMARK  244  A    between atoms: _627  and  _628
REMARK  245  A    between atoms: _630  and  _632
REMARK  246  A    between atoms: _632  and  _633
REMARK  247  A    between atoms: _632  and  _635
REMARK  248  A    between atoms: _635  and  _636
REMARK  249  A    between atoms: _642  and  _644
REMARK  250  A    between atoms: _644  and  _645
REMARK  251  A    between atoms: _644  and  _647
REMARK  252  A    between atoms: _647  and  _648
REMARK  253  A    between atoms: _648  and  _649
REMARK  254  A    between atoms: _651  and  _653
REMARK  255  A    between atoms: _653  and  _654
REMARK  256  A    between atoms: _653  and  _656
REMARK  257  A    between atoms: _656  and  _657
REMARK                            x       y       z     vdW  Elec       q    Type
REMARK                         _______ _______ _______ _____ _____    ______ ____
ROOT
ATOM      1  O   HOH     1      -0.444  10.777  24.744  0.00  0.00    +0.000 OA
ENDROOT
TORSDOF 0
REMARK  Name = ../refined-set-2016/1ex8/1ex8_pocket.pdb
REMARK  257 active torsions:
REMARK  status: ('A' for Active; 'I' for Inactive)
REMARK    1  A    between atoms: _1  and  _3
REMARK    2  A    between atoms: _3  and  _4
REMARK    3  A    between atoms: _3  and  _6
REMARK    4  A    between atoms: _6  and  _7
REMARK    5  A    between atoms: _12  and  _13
REMARK    6  A    between atoms: _15  and  _17
REMARK    7  A    between atoms: _17  and  _18
REMARK    8  A    between atoms: _17  and  _20
REMARK    9  A    between atoms: _20  and  _21
REMARK   10  A    between atoms: _24  and  _26
REMARK   11  A    between atoms: _26  and  _27
REMARK   12  A    between atoms: _30  and  _32
REMARK   13  A    between atoms: _32  and  _33
REMARK   14  A    between atoms: _32  and  _35
REMARK   15  A    between atoms: _35  and  _36
REMARK   16  A    between atoms: _39  and  _41
REMARK   17  A    between atoms: _41  and  _42
REMARK   18  A    between atoms: _44  and  _46
REMARK   19  A    between atoms: _46  and  _47
REMARK   20  A    between atoms: _46  and  _49
REMARK   21  A    between atoms: _49  and  _50
REMARK   22  A    between atoms: _52  and  _54
REMARK   23  A    between atoms: _54  and  _55
REMARK   24  A    between atoms: _54  and  _57
REMARK   25  A    between atoms: _57  and  _58
REMARK   26  A    between atoms: _63  and  _65
REMARK   27  A    between atoms: _65  and  _66
REMARK   28  A    between atoms: _65  and  _68
REMARK   29  A    between atoms: _68  and  _69
REMARK   30  A    between atoms: _74  and  _75
REMARK   31  A    between atoms: _77  and  _79
REMARK   32  A    between atoms: _79  and  _80
REMARK   33  A    between atoms: _79  and  _82
REMARK   34  A    between atoms: _82  and  _83
REMARK   35  A    between atoms: _83  and  _84
REMARK   36  A    between atoms: _84  and  _85
REMARK   37  A    between atoms: _94  and  _96
REMARK   38  A    between atoms: _96  and  _97
REMARK   39  A    between atoms: _96  and  _99
REMARK   40  A    between atoms: _99  and  _100
REMARK   41  A    between atoms: _104  and  _105
REMARK   42  A    between atoms: _111  and  _112
REMARK   43  A    between atoms: _117  and  _119
REMARK   44  A    between atoms: _119  and  _120
REMARK   45  A    between atoms: _119  and  _122
REMARK   46  A    between atoms: _122  and  _123
REMARK   47  A    between atoms: _126  and  _128
REMARK   48  A    between atoms: _128  and  _129
REMARK   49  A    between atoms: _132  and  _133
REMARK   50  A    between atoms: _138  and  _140
REMARK   51  A    between atoms: _140  and  _141
REMARK   52  A    between atoms: _140  and  _143
REMARK   53  A    between atoms: _143  and  _144
REMARK   54  A    between atoms: _144  and  _145
REMARK   55  A    between atoms: _150  and  _152
REMARK   56  A    between atoms: _152  and  _153
REMARK   57  A    between atoms: _152  and  _155
REMARK   58  A    between atoms: _155  and  _156
REMARK   59  A    between atoms: _156  and  _157
REMARK   60  A    between atoms: _163  and  _164
REMARK   61  A    between atoms: _169  and  _171
REMARK   62  A    between atoms: _171  and  _172
REMARK   63  A    between atoms: _171  and  _174
REMARK   64  A    between atoms: _174  and  _175
REMARK   65  A    between atoms: _178  and  _180
REMARK   66  A    between atoms: _180  and  _181
REMARK   67  A    between atoms: _180  and  _183
REMARK   68  A    between atoms: _183  and  _184
REMARK   69  A    between atoms: _189  and  _190
REMARK   70  A    between atoms: _192  and  _194
REMARK   71  A    between atoms: _194  and  _195
REMARK   72  A    between atoms: _194  and  _197
REMARK   73  A    between atoms: _197  and  _198
REMARK   74  A    between atoms: _201  and  _203
REMARK   75  A    between atoms: _203  and  _204
REMARK   76  A    between atoms: _203  and  _206
REMARK   77  A    between atoms: _206  and  _207
REMARK   78  A    between atoms: _212  and  _214
REMARK   79  A    between atoms: _214  and  _215
REMARK   80  A    between atoms: _218  and  _220
REMARK   81  A    between atoms: _220  and  _221
REMARK   82  A    between atoms: _220  and  _223
REMARK   83  A    between atoms: _223  and  _224
REMARK   84  A    between atoms: _224  and  _225
REMARK   85  A    between atoms: _228  and  _230
REMARK   86  A    between atoms: _230  and  _231
REMARK   87  A    between atoms: _230  and  _233
REMARK   88  A    between atoms: _233  and  _234
REMARK   89  A    between atoms: _237  and  _239
REMARK   90  A    between atoms: _239  and  _240
REMARK   91  A    between atoms: _239  and  _242
REMARK   92  A    between atoms: _242  and  _243
REMARK   93  A    between atoms: _246  and  _248
REMARK   94  A    between atoms: _248  and  _249
REMARK   95  A    between atoms: _248  and  _251
REMARK   96  A    between atoms: _251  and  _252
REMARK   97  A    between atoms: _252  and  _253
REMARK   98  A    between atoms: _258  and  _260
REMARK   99  A    between atoms: _260  and  _261
REMARK  100  A    between atoms: _260  and  _263
REMARK  101  A    between atoms: _263  and  _264
REMARK  102  A    between atoms: _264  and  _265
REMARK  103  A    between atoms: _268  and  _270
REMARK  104  A    between atoms: _270  and  _271
REMARK  105  A    between atoms: _270  and  _273
REMARK  106  A    between atoms: _273  and  _274
REMARK  107  A    between atoms: _274  and  _275
REMARK  108  A    between atoms: _275  and  _276
REMARK  109  A    between atoms: _285  and  _287
REMARK  110  A    between atoms: _287  and  _288
REMARK  111  A    between atoms: _287  and  _290
REMARK  112  A    between atoms: _293  and  _295
REMARK  113  A    between atoms: _295  and  _296
REMARK  114  A    between atoms: _295  and  _298
REMARK  115  A    between atoms: _298  and  _299
REMARK  116  A    between atoms: _299  and  _300
REMARK  117  A    between atoms: _300  and  _301
REMARK  118  A    between atoms: _310  and  _312
REMARK  119  A    between atoms: _312  and  _313
REMARK  120  A    between atoms: _312  and  _315
REMARK  121  A    between atoms: _315  and  _316
REMARK  122  A    between atoms: _316  and  _317
REMARK  123  A    between atoms: _317  and  _318
REMARK  124  A    between atoms: _318  and  _319
REMARK  125  A    between atoms: _323  and  _325
REMARK  126  A    between atoms: _325  and  _326
REMARK  127  A    between atoms: _329  and  _331
REMARK  128  A    between atoms: _331  and  _332
REMARK  129  A    between atoms: _331  and  _334
REMARK  130  A    between atoms: _334  and  _335
REMARK  131  A    between atoms: _335  and  _336
REMARK  132  A    between atoms: _339  and  _341
REMARK  133  A    between atoms: _341  and  _342
REMARK  134  A    between atoms: _341  and  _344
REMARK  135  A    between atoms: _344  and  _345
REMARK  136  A    between atoms: _345  and  _346
REMARK  137  A    between atoms: _346  and  _347
REMARK  138  A    between atoms: _356  and  _358
REMARK  139  A    between atoms: _358  and  _359
REMARK  140  A    between atoms: _358  and  _361
REMARK  141  A    between atoms: _361  and  _362
REMARK  142  A    between atoms: _372  and  _374
REMARK  143  A    between atoms: _374  and  _375
REMARK  144  A    between atoms: _378  and  _379
REMARK  145  A    between atoms: _384  and  _386
REMARK  146  A    between atoms: _386  and  _387
REMARK  147  A    between atoms: _386  and  _389
REMARK  148  A    between atoms: _389  and  _390
REMARK  149  A    between atoms: _390  and  _391
REMARK  150  A    between atoms: _391  and  _392
REMARK  151  A    between atoms: _401  and  _403
REMARK  152  A    between atoms: _403  and  _404
REMARK  153  A    between atoms: _403  and  _406
REMARK  154  A    between atoms: _406  and  _407
REMARK  155  A    between atoms: _410  and  _412
REMARK  156  A    between atoms: _412  and  _413
REMARK  157  A    between atoms: _412  and  _415
REMARK  158  A    between atoms: _415  and  _416
REMARK  159  A    between atoms: _419  and  _421
REMARK  160  A    between atoms: _421  and  _422
REMARK  161  A    between atoms: _421  and  _424
REMARK  162  A    between atoms: _424  and  _425
REMARK  163  A    between atoms: _428  and  _430
REMARK  164  A    between atoms: _430  and  _431
REMARK  165  A    between atoms: _430  and  _433
REMARK  166  A    between atoms: _433  and  _434
REMARK  167  A    between atoms: _437  and  _439
REMARK  168  A    between atoms: _439  and  _440
REMARK  169  A    between atoms: _439  and  _442
REMARK  170  A    between atoms: _442  and  _443
REMARK  171  A    between atoms: _446  and  _448
REMARK  172  A    between atoms: _448  and  _449
REMARK  173  A    between atoms: _448  and  _451
REMARK  174  A    between atoms: _451  and  _452
REMARK  175  A    between atoms: _452  and  _453
REMARK  176  A    between atoms: _455  and  _457
REMARK  177  A    between atoms: _457  and  _458
REMARK  178  A    between atoms: _457  and  _460
REMARK  179  A    between atoms: _460  and  _461
REMARK  180  A    between atoms: _464  and  _466
REMARK  181  A    between atoms: _466  and  _467
REMARK  182  A    between atoms: _466  and  _469
REMARK  183  A    between atoms: _469  and  _470
REMARK  184  A    between atoms: _476  and  _478
REMARK  185  A    between atoms: _478  and  _479
REMARK  186  A    between atoms: _478  and  _481
REMARK  187  A    between atoms: _481  and  _482
REMARK  188  A    between atoms: _485  and  _487
REMARK  189  A    between atoms: _487  and  _488
REMARK  190  A    between atoms: _487  and  _490
REMARK  191  A    between atoms: _490  and  _491
REMARK  192  A    between atoms: _496  and  _498
REMARK  193  A    between atoms: _498  and  _499
REMARK  194  A    between atoms: _498  and  _501
REMARK  195  A    between atoms: _501  and  _502
REMARK  196  A    between atoms: _505  and  _507
REMARK  197  A    between atoms: _507  and  _508
REMARK  198  A    between atoms: _507  and  _510
REMARK  199  A    between atoms: _510  and  _511
REMARK  200  A    between atoms: _511  and  _512
REMARK  201  A    between atoms: _515  and  _517
REMARK  202  A    between atoms: _517  and  _518
REMARK  203  A    between atoms: _517  and  _520
REMARK  204  A    between atoms: _520  and  _521
REMARK  205  A    between atoms: _521  and  _522
REMARK  206  A    between atoms: _522  and  _523
REMARK  207  A    between atoms: _532  and  _534
REMARK  208  A    between atoms: _534  and  _535
REMARK  209  A    between atoms: _534  and  _537
REMARK  210  A    between atoms: _537  and  _538
REMARK  211  A    between atoms: _541  and  _543
REMARK  212  A    between atoms: _543  and  _544
REMARK  213  A    between atoms: _543  and  _546
REMARK  214  A    between atoms: _546  and  _547
REMARK  215  A    between atoms: _550  and  _552
REMARK  216  A    between atoms: _552  and  _553
REMARK  217  A    between atoms: _552  and  _555
REMARK  218  A    between atoms: _559  and  _560
REMARK  219  A    between atoms: _565  and  _567
REMARK  220  A    between atoms: _567  and  _568
REMARK  221  A    between atoms: _567  and  _570
REMARK  222  A    between atoms: _570  and  _571
REMARK  223  A    between atoms: _576  and  _578
REMARK  224  A    between atoms: _578  and  _579
REMARK  225  A    between atoms: _578  and  _581
REMARK  226  A    between atoms: _581  and  _582
REMARK  227  A    between atoms: _587  and  _588
REMARK  228  A    between atoms: _590  and  _592
REMARK  229  A    between atoms: _592  and  _593
REMARK  230  A    between atoms: _592  and  _595
REMARK  231  A    between atoms: _595  and  _596
REMARK  232  A    between atoms: _599  and  _601
REMARK  233  A    between atoms: _601  and  _602
REMARK  234  A    between atoms: _601  and  _604
REMARK  235  A    between atoms: _604  and  _605
REMARK  236  A    between atoms: _605  and  _606
REMARK  237  A    between atoms: _608  and  _610
REMARK  238  A    between atoms: _610  and  _611
REMARK  239  A    between atoms: _610  and  _613
REMARK  240  A    between atoms: _613  and  _614
REMARK  241  A    between atoms: _614  and  _615
REMARK  242  A    between atoms: _615  and  _616
REMARK  243  A    between atoms: _625  and  _627
REMARK  244  A    between atoms: _627  and  _628
REMARK  245  A    between atoms: _630  and  _632
REMARK  246  A    between atoms: _632  and  _633
REMARK  247  A    between atoms: _632  and  _635
REMARK  248  A    between atoms: _635  and  _636
REMARK  249  A    between atoms: _642  and  _644
REMARK  250  A    between atoms: _644  and  _645
REMARK  251  A    between atoms: _644  and  _647
REMARK  252  A    between atoms: _647  and  _648
REMARK  253  A    between atoms: _648  and  _649
REMARK  254  A    between atoms: _651  and  _653
REMARK  255  A    between atoms: _653  and  _654
REMARK  256  A    between atoms: _653  and  _656
REMARK  257  A    between atoms: _656  and  _657
REMARK                            x       y       z     vdW  Elec       q    Type
REMARK                         _______ _______ _______ _____ _____    ______ ____
ROOT
ATOM      1  O   HOH     1       7.362  32.194   9.759  0.00  0.00    +0.000 OA
ENDROOT
TORSDOF 0
REMARK  Name = ../refined-set-2016/1ex8/1ex8_pocket.pdb
REMARK  257 active torsions:
REMARK  status: ('A' for Active; 'I' for Inactive)
REMARK    1  A    between atoms: _1  and  _3
REMARK    2  A    between atoms: _3  and  _4
REMARK    3  A    between atoms: _3  and  _6
REMARK    4  A    between atoms: _6  and  _7
REMARK    5  A    between atoms: _12  and  _13
REMARK    6  A    between atoms: _15  and  _17
REMARK    7  A    between atoms: _17  and  _18
REMARK    8  A    between atoms: _17  and  _20
REMARK    9  A    between atoms: _20  and  _21
REMARK   10  A    between atoms: _24  and  _26
REMARK   11  A    between atoms: _26  and  _27
REMARK   12  A    between atoms: _30  and  _32
REMARK   13  A    between atoms: _32  and  _33
REMARK   14  A    between atoms: _32  and  _35
REMARK   15  A    between atoms: _35  and  _36
REMARK   16  A    between atoms: _39  and  _41
REMARK   17  A    between atoms: _41  and  _42
REMARK   18  A    between atoms: _44  and  _46
REMARK   19  A    between atoms: _46  and  _47
REMARK   20  A    between atoms: _46  and  _49
REMARK   21  A    between atoms: _49  and  _50
REMARK   22  A    between atoms: _52  and  _54
REMARK   23  A    between atoms: _54  and  _55
REMARK   24  A    between atoms: _54  and  _57
REMARK   25  A    between atoms: _57  and  _58
REMARK   26  A    between atoms: _63  and  _65
REMARK   27  A    between atoms: _65  and  _66
REMARK   28  A    between atoms: _65  and  _68
REMARK   29  A    between atoms: _68  and  _69
REMARK   30  A    between atoms: _74  and  _75
REMARK   31  A    between atoms: _77  and  _79
REMARK   32  A    between atoms: _79  and  _80
REMARK   33  A    between atoms: _79  and  _82
REMARK   34  A    between atoms: _82  and  _83
REMARK   35  A    between atoms: _83  and  _84
REMARK   36  A    between atoms: _84  and  _85
REMARK   37  A    between atoms: _94  and  _96
REMARK   38  A    between atoms: _96  and  _97
REMARK   39  A    between atoms: _96  and  _99
REMARK   40  A    between atoms: _99  and  _100
REMARK   41  A    between atoms: _104  and  _105
REMARK   42  A    between atoms: _111  and  _112
REMARK   43  A    between atoms: _117  and  _119
REMARK   44  A    between atoms: _119  and  _120
REMARK   45  A    between atoms: _119  and  _122
REMARK   46  A    between atoms: _122  and  _123
REMARK   47  A    between atoms: _126  and  _128
REMARK   48  A    between atoms: _128  and  _129
REMARK   49  A    between atoms: _132  and  _133
REMARK   50  A    between atoms: _138  and  _140
REMARK   51  A    between atoms: _140  and  _141
REMARK   52  A    between atoms: _140  and  _143
REMARK   53  A    between atoms: _143  and  _144
REMARK   54  A    between atoms: _144  and  _145
REMARK   55  A    between atoms: _150  and  _152
REMARK   56  A    between atoms: _152  and  _153
REMARK   57  A    between atoms: _152  and  _155
REMARK   58  A    between atoms: _155  and  _156
REMARK   59  A    between atoms: _156  and  _157
REMARK   60  A    between atoms: _163  and  _164
REMARK   61  A    between atoms: _169  and  _171
REMARK   62  A    between atoms: _171  and  _172
REMARK   63  A    between atoms: _171  and  _174
REMARK   64  A    between atoms: _174  and  _175
REMARK   65  A    between atoms: _178  and  _180
REMARK   66  A    between atoms: _180  and  _181
REMARK   67  A    between atoms: _180  and  _183
REMARK   68  A    between atoms: _183  and  _184
REMARK   69  A    between atoms: _189  and  _190
REMARK   70  A    between atoms: _192  and  _194
REMARK   71  A    between atoms: _194  and  _195
REMARK   72  A    between atoms: _194  and  _197
REMARK   73  A    between atoms: _197  and  _198
REMARK   74  A    between atoms: _201  and  _203
REMARK   75  A    between atoms: _203  and  _204
REMARK   76  A    between atoms: _203  and  _206
REMARK   77  A    between atoms: _206  and  _207
REMARK   78  A    between atoms: _212  and  _214
REMARK   79  A    between atoms: _214  and  _215
REMARK   80  A    between atoms: _218  and  _220
REMARK   81  A    between atoms: _220  and  _221
REMARK   82  A    between atoms: _220  and  _223
REMARK   83  A    between atoms: _223  and  _224
REMARK   84  A    between atoms: _224  and  _225
REMARK   85  A    between atoms: _228  and  _230
REMARK   86  A    between atoms: _230  and  _231
REMARK   87  A    between atoms: _230  and  _233
REMARK   88  A    between atoms: _233  and  _234
REMARK   89  A    between atoms: _237  and  _239
REMARK   90  A    between atoms: _239  and  _240
REMARK   91  A    between atoms: _239  and  _242
REMARK   92  A    between atoms: _242  and  _243
REMARK   93  A    between atoms: _246  and  _248
REMARK   94  A    between atoms: _248  and  _249
REMARK   95  A    between atoms: _248  and  _251
REMARK   96  A    between atoms: _251  and  _252
REMARK   97  A    between atoms: _252  and  _253
REMARK   98  A    between atoms: _258  and  _260
REMARK   99  A    between atoms: _260  and  _261
REMARK  100  A    between atoms: _260  and  _263
REMARK  101  A    between atoms: _263  and  _264
REMARK  102  A    between atoms: _264  and  _265
REMARK  103  A    between atoms: _268  and  _270
REMARK  104  A    between atoms: _270  and  _271
REMARK  105  A    between atoms: _270  and  _273
REMARK  106  A    between atoms: _273  and  _274
REMARK  107  A    between atoms: _274  and  _275
REMARK  108  A    between atoms: _275  and  _276
REMARK  109  A    between atoms: _285  and  _287
REMARK  110  A    between atoms: _287  and  _288
REMARK  111  A    between atoms: _287  and  _290
REMARK  112  A    between atoms: _293  and  _295
REMARK  113  A    between atoms: _295  and  _296
REMARK  114  A    between atoms: _295  and  _298
REMARK  115  A    between atoms: _298  and  _299
REMARK  116  A    between atoms: _299  and  _300
REMARK  117  A    between atoms: _300  and  _301
REMARK  118  A    between atoms: _310  and  _312
REMARK  119  A    between atoms: _312  and  _313
REMARK  120  A    between atoms: _312  and  _315
REMARK  121  A    between atoms: _315  and  _316
REMARK  122  A    between atoms: _316  and  _317
REMARK  123  A    between atoms: _317  and  _318
REMARK  124  A    between atoms: _318  and  _319
REMARK  125  A    between atoms: _323  and  _325
REMARK  126  A    between atoms: _325  and  _326
REMARK  127  A    between atoms: _329  and  _331
REMARK  128  A    between atoms: _331  and  _332
REMARK  129  A    between atoms: _331  and  _334
REMARK  130  A    between atoms: _334  and  _335
REMARK  131  A    between atoms: _335  and  _336
REMARK  132  A    between atoms: _339  and  _341
REMARK  133  A    between atoms: _341  and  _342
REMARK  134  A    between atoms: _341  and  _344
REMARK  135  A    between atoms: _344  and  _345
REMARK  136  A    between atoms: _345  and  _346
REMARK  137  A    between atoms: _346  and  _347
REMARK  138  A    between atoms: _356  and  _358
REMARK  139  A    between atoms: _358  and  _359
REMARK  140  A    between atoms: _358  and  _361
REMARK  141  A    between atoms: _361  and  _362
REMARK  142  A    between atoms: _372  and  _374
REMARK  143  A    between atoms: _374  and  _375
REMARK  144  A    between atoms: _378  and  _379
REMARK  145  A    between atoms: _384  and  _386
REMARK  146  A    between atoms: _386  and  _387
REMARK  147  A    between atoms: _386  and  _389
REMARK  148  A    between atoms: _389  and  _390
REMARK  149  A    between atoms: _390  and  _391
REMARK  150  A    between atoms: _391  and  _392
REMARK  151  A    between atoms: _401  and  _403
REMARK  152  A    between atoms: _403  and  _404
REMARK  153  A    between atoms: _403  and  _406
REMARK  154  A    between atoms: _406  and  _407
REMARK  155  A    between atoms: _410  and  _412
REMARK  156  A    between atoms: _412  and  _413
REMARK  157  A    between atoms: _412  and  _415
REMARK  158  A    between atoms: _415  and  _416
REMARK  159  A    between atoms: _419  and  _421
REMARK  160  A    between atoms: _421  and  _422
REMARK  161  A    between atoms: _421  and  _424
REMARK  162  A    between atoms: _424  and  _425
REMARK  163  A    between atoms: _428  and  _430
REMARK  164  A    between atoms: _430  and  _431
REMARK  165  A    between atoms: _430  and  _433
REMARK  166  A    between atoms: _433  and  _434
REMARK  167  A    between atoms: _437  and  _439
REMARK  168  A    between atoms: _439  and  _440
REMARK  169  A    between atoms: _439  and  _442
REMARK  170  A    between atoms: _442  and  _443
REMARK  171  A    between atoms: _446  and  _448
REMARK  172  A    between atoms: _448  and  _449
REMARK  173  A    between atoms: _448  and  _451
REMARK  174  A    between atoms: _451  and  _452
REMARK  175  A    between atoms: _452  and  _453
REMARK  176  A    between atoms: _455  and  _457
REMARK  177  A    between atoms: _457  and  _458
REMARK  178  A    between atoms: _457  and  _460
REMARK  179  A    between atoms: _460  and  _461
REMARK  180  A    between atoms: _464  and  _466
REMARK  181  A    between atoms: _466  and  _467
REMARK  182  A    between atoms: _466  and  _469
REMARK  183  A    between atoms: _469  and  _470
REMARK  184  A    between atoms: _476  and  _478
REMARK  185  A    between atoms: _478  and  _479
REMARK  186  A    between atoms: _478  and  _481
REMARK  187  A    between atoms: _481  and  _482
REMARK  188  A    between atoms: _485  and  _487
REMARK  189  A    between atoms: _487  and  _488
REMARK  190  A    between atoms: _487  and  _490
REMARK  191  A    between atoms: _490  and  _491
REMARK  192  A    between atoms: _496  and  _498
REMARK  193  A    between atoms: _498  and  _499
REMARK  194  A    between atoms: _498  and  _501
REMARK  195  A    between atoms: _501  and  _502
REMARK  196  A    between atoms: _505  and  _507
REMARK  197  A    between atoms: _507  and  _508
REMARK  198  A    between atoms: _507  and  _510
REMARK  199  A    between atoms: _510  and  _511
REMARK  200  A    between atoms: _511  and  _512
REMARK  201  A    between atoms: _515  and  _517
REMARK  202  A    between atoms: _517  and  _518
REMARK  203  A    between atoms: _517  and  _520
REMARK  204  A    between atoms: _520  and  _521
REMARK  205  A    between atoms: _521  and  _522
REMARK  206  A    between atoms: _522  and  _523
REMARK  207  A    between atoms: _532  and  _534
REMARK  208  A    between atoms: _534  and  _535
REMARK  209  A    between atoms: _534  and  _537
REMARK  210  A    between atoms: _537  and  _538
REMARK  211  A    between atoms: _541  and  _543
REMARK  212  A    between atoms: _543  and  _544
REMARK  213  A    between atoms: _543  and  _546
REMARK  214  A    between atoms: _546  and  _547
REMARK  215  A    between atoms: _550  and  _552
REMARK  216  A    between atoms: _552  and  _553
REMARK  217  A    between atoms: _552  and  _555
REMARK  218  A    between atoms: _559  and  _560
REMARK  219  A    between atoms: _565  and  _567
REMARK  220  A    between atoms: _567  and  _568
REMARK  221  A    between atoms: _567  and  _570
REMARK  222  A    between atoms: _570  and  _571
REMARK  223  A    between atoms: _576  and  _578
REMARK  224  A    between atoms: _578  and  _579
REMARK  225  A    between atoms: _578  and  _581
REMARK  226  A    between atoms: _581  and  _582
REMARK  227  A    between atoms: _587  and  _588
REMARK  228  A    between atoms: _590  and  _592
REMARK  229  A    between atoms: _592  and  _593
REMARK  230  A    between atoms: _592  and  _595
REMARK  231  A    between atoms: _595  and  _596
REMARK  232  A    between atoms: _599  and  _601
REMARK  233  A    between atoms: _601  and  _602
REMARK  234  A    between atoms: _601  and  _604
REMARK  235  A    between atoms: _604  and  _605
REMARK  236  A    between atoms: _605  and  _606
REMARK  237  A    between atoms: _608  and  _610
REMARK  238  A    between atoms: _610  and  _611
REMARK  239  A    between atoms: _610  and  _613
REMARK  240  A    between atoms: _613  and  _614
REMARK  241  A    between atoms: _614  and  _615
REMARK  242  A    between atoms: _615  and  _616
REMARK  243  A    between atoms: _625  and  _627
REMARK  244  A    between atoms: _627  and  _628
REMARK  245  A    between atoms: _630  and  _632
REMARK  246  A    between atoms: _632  and  _633
REMARK  247  A    between atoms: _632  and  _635
REMARK  248  A    between atoms: _635  and  _636
REMARK  249  A    between atoms: _642  and  _644
REMARK  250  A    between atoms: _644  and  _645
REMARK  251  A    between atoms: _644  and  _647
REMARK  252  A    between atoms: _647  and  _648
REMARK  253  A    between atoms: _648  and  _649
REMARK  254  A    between atoms: _651  and  _653
REMARK  255  A    between atoms: _653  and  _654
REMARK  256  A    between atoms: _653  and  _656
REMARK  257  A    between atoms: _656  and  _657
REMARK                            x       y       z     vdW  Elec       q    Type
REMARK                         _______ _______ _______ _____ _____    ______ ____
ROOT
ATOM      1  O   HOH     1      -9.026  21.647  18.083  0.00  0.00    +0.000 OA
ENDROOT
TORSDOF 0
REMARK  Name = ../refined-set-2016/1ex8/1ex8_pocket.pdb
REMARK  257 active torsions:
REMARK  status: ('A' for Active; 'I' for Inactive)
REMARK    1  A    between atoms: _1  and  _3
REMARK    2  A    between atoms: _3  and  _4
REMARK    3  A    between atoms: _3  and  _6
REMARK    4  A    between atoms: _6  and  _7
REMARK    5  A    between atoms: _12  and  _13
REMARK    6  A    between atoms: _15  and  _17
REMARK    7  A    between atoms: _17  and  _18
REMARK    8  A    between atoms: _17  and  _20
REMARK    9  A    between atoms: _20  and  _21
REMARK   10  A    between atoms: _24  and  _26
REMARK   11  A    between atoms: _26  and  _27
REMARK   12  A    between atoms: _30  and  _32
REMARK   13  A    between atoms: _32  and  _33
REMARK   14  A    between atoms: _32  and  _35
REMARK   15  A    between atoms: _35  and  _36
REMARK   16  A    between atoms: _39  and  _41
REMARK   17  A    between atoms: _41  and  _42
REMARK   18  A    between atoms: _44  and  _46
REMARK   19  A    between atoms: _46  and  _47
REMARK   20  A    between atoms: _46  and  _49
REMARK   21  A    between atoms: _49  and  _50
REMARK   22  A    between atoms: _52  and  _54
REMARK   23  A    between atoms: _54  and  _55
REMARK   24  A    between atoms: _54  and  _57
REMARK   25  A    between atoms: _57  and  _58
REMARK   26  A    between atoms: _63  and  _65
REMARK   27  A    between atoms: _65  and  _66
REMARK   28  A    between atoms: _65  and  _68
REMARK   29  A    between atoms: _68  and  _69
REMARK   30  A    between atoms: _74  and  _75
REMARK   31  A    between atoms: _77  and  _79
REMARK   32  A    between atoms: _79  and  _80
REMARK   33  A    between atoms: _79  and  _82
REMARK   34  A    between atoms: _82  and  _83
REMARK   35  A    between atoms: _83  and  _84
REMARK   36  A    between atoms: _84  and  _85
REMARK   37  A    between atoms: _94  and  _96
REMARK   38  A    between atoms: _96  and  _97
REMARK   39  A    between atoms: _96  and  _99
REMARK   40  A    between atoms: _99  and  _100
REMARK   41  A    between atoms: _104  and  _105
REMARK   42  A    between atoms: _111  and  _112
REMARK   43  A    between atoms: _117  and  _119
REMARK   44  A    between atoms: _119  and  _120
REMARK   45  A    between atoms: _119  and  _122
REMARK   46  A    between atoms: _122  and  _123
REMARK   47  A    between atoms: _126  and  _128
REMARK   48  A    between atoms: _128  and  _129
REMARK   49  A    between atoms: _132  and  _133
REMARK   50  A    between atoms: _138  and  _140
REMARK   51  A    between atoms: _140  and  _141
REMARK   52  A    between atoms: _140  and  _143
REMARK   53  A    between atoms: _143  and  _144
REMARK   54  A    between atoms: _144  and  _145
REMARK   55  A    between atoms: _150  and  _152
REMARK   56  A    between atoms: _152  and  _153
REMARK   57  A    between atoms: _152  and  _155
REMARK   58  A    between atoms: _155  and  _156
REMARK   59  A    between atoms: _156  and  _157
REMARK   60  A    between atoms: _163  and  _164
REMARK   61  A    between atoms: _169  and  _171
REMARK   62  A    between atoms: _171  and  _172
REMARK   63  A    between atoms: _171  and  _174
REMARK   64  A    between atoms: _174  and  _175
REMARK   65  A    between atoms: _178  and  _180
REMARK   66  A    between atoms: _180  and  _181
REMARK   67  A    between atoms: _180  and  _183
REMARK   68  A    between atoms: _183  and  _184
REMARK   69  A    between atoms: _189  and  _190
REMARK   70  A    between atoms: _192  and  _194
REMARK   71  A    between atoms: _194  and  _195
REMARK   72  A    between atoms: _194  and  _197
REMARK   73  A    between atoms: _197  and  _198
REMARK   74  A    between atoms: _201  and  _203
REMARK   75  A    between atoms: _203  and  _204
REMARK   76  A    between atoms: _203  and  _206
REMARK   77  A    between atoms: _206  and  _207
REMARK   78  A    between atoms: _212  and  _214
REMARK   79  A    between atoms: _214  and  _215
REMARK   80  A    between atoms: _218  and  _220
REMARK   81  A    between atoms: _220  and  _221
REMARK   82  A    between atoms: _220  and  _223
REMARK   83  A    between atoms: _223  and  _224
REMARK   84  A    between atoms: _224  and  _225
REMARK   85  A    between atoms: _228  and  _230
REMARK   86  A    between atoms: _230  and  _231
REMARK   87  A    between atoms: _230  and  _233
REMARK   88  A    between atoms: _233  and  _234
REMARK   89  A    between atoms: _237  and  _239
REMARK   90  A    between atoms: _239  and  _240
REMARK   91  A    between atoms: _239  and  _242
REMARK   92  A    between atoms: _242  and  _243
REMARK   93  A    between atoms: _246  and  _248
REMARK   94  A    between atoms: _248  and  _249
REMARK   95  A    between atoms: _248  and  _251
REMARK   96  A    between atoms: _251  and  _252
REMARK   97  A    between atoms: _252  and  _253
REMARK   98  A    between atoms: _258  and  _260
REMARK   99  A    between atoms: _260  and  _261
REMARK  100  A    between atoms: _260  and  _263
REMARK  101  A    between atoms: _263  and  _264
REMARK  102  A    between atoms: _264  and  _265
REMARK  103  A    between atoms: _268  and  _270
REMARK  104  A    between atoms: _270  and  _271
REMARK  105  A    between atoms: _270  and  _273
REMARK  106  A    between atoms: _273  and  _274
REMARK  107  A    between atoms: _274  and  _275
REMARK  108  A    between atoms: _275  and  _276
REMARK  109  A    between atoms: _285  and  _287
REMARK  110  A    between atoms: _287  and  _288
REMARK  111  A    between atoms: _287  and  _290
REMARK  112  A    between atoms: _293  and  _295
REMARK  113  A    between atoms: _295  and  _296
REMARK  114  A    between atoms: _295  and  _298
REMARK  115  A    between atoms: _298  and  _299
REMARK  116  A    between atoms: _299  and  _300
REMARK  117  A    between atoms: _300  and  _301
REMARK  118  A    between atoms: _310  and  _312
REMARK  119  A    between atoms: _312  and  _313
REMARK  120  A    between atoms: _312  and  _315
REMARK  121  A    between atoms: _315  and  _316
REMARK  122  A    between atoms: _316  and  _317
REMARK  123  A    between atoms: _317  and  _318
REMARK  124  A    between atoms: _318  and  _319
REMARK  125  A    between atoms: _323  and  _325
REMARK  126  A    between atoms: _325  and  _326
REMARK  127  A    between atoms: _329  and  _331
REMARK  128  A    between atoms: _331  and  _332
REMARK  129  A    between atoms: _331  and  _334
REMARK  130  A    between atoms: _334  and  _335
REMARK  131  A    between atoms: _335  and  _336
REMARK  132  A    between atoms: _339  and  _341
REMARK  133  A    between atoms: _341  and  _342
REMARK  134  A    between atoms: _341  and  _344
REMARK  135  A    between atoms: _344  and  _345
REMARK  136  A    between atoms: _345  and  _346
REMARK  137  A    between atoms: _346  and  _347
REMARK  138  A    between atoms: _356  and  _358
REMARK  139  A    between atoms: _358  and  _359
REMARK  140  A    between atoms: _358  and  _361
REMARK  141  A    between atoms: _361  and  _362
REMARK  142  A    between atoms: _372  and  _374
REMARK  143  A    between atoms: _374  and  _375
REMARK  144  A    between atoms: _378  and  _379
REMARK  145  A    between atoms: _384  and  _386
REMARK  146  A    between atoms: _386  and  _387
REMARK  147  A    between atoms: _386  and  _389
REMARK  148  A    between atoms: _389  and  _390
REMARK  149  A    between atoms: _390  and  _391
REMARK  150  A    between atoms: _391  and  _392
REMARK  151  A    between atoms: _401  and  _403
REMARK  152  A    between atoms: _403  and  _404
REMARK  153  A    between atoms: _403  and  _406
REMARK  154  A    between atoms: _406  and  _407
REMARK  155  A    between atoms: _410  and  _412
REMARK  156  A    between atoms: _412  and  _413
REMARK  157  A    between atoms: _412  and  _415
REMARK  158  A    between atoms: _415  and  _416
REMARK  159  A    between atoms: _419  and  _421
REMARK  160  A    between atoms: _421  and  _422
REMARK  161  A    between atoms: _421  and  _424
REMARK  162  A    between atoms: _424  and  _425
REMARK  163  A    between atoms: _428  and  _430
REMARK  164  A    between atoms: _430  and  _431
REMARK  165  A    between atoms: _430  and  _433
REMARK  166  A    between atoms: _433  and  _434
REMARK  167  A    between atoms: _437  and  _439
REMARK  168  A    between atoms: _439  and  _440
REMARK  169  A    between atoms: _439  and  _442
REMARK  170  A    between atoms: _442  and  _443
REMARK  171  A    between atoms: _446  and  _448
REMARK  172  A    between atoms: _448  and  _449
REMARK  173  A    between atoms: _448  and  _451
REMARK  174  A    between atoms: _451  and  _452
REMARK  175  A    between atoms: _452  and  _453
REMARK  176  A    between atoms: _455  and  _457
REMARK  177  A    between atoms: _457  and  _458
REMARK  178  A    between atoms: _457  and  _460
REMARK  179  A    between atoms: _460  and  _461
REMARK  180  A    between atoms: _464  and  _466
REMARK  181  A    between atoms: _466  and  _467
REMARK  182  A    between atoms: _466  and  _469
REMARK  183  A    between atoms: _469  and  _470
REMARK  184  A    between atoms: _476  and  _478
REMARK  185  A    between atoms: _478  and  _479
REMARK  186  A    between atoms: _478  and  _481
REMARK  187  A    between atoms: _481  and  _482
REMARK  188  A    between atoms: _485  and  _487
REMARK  189  A    between atoms: _487  and  _488
REMARK  190  A    between atoms: _487  and  _490
REMARK  191  A    between atoms: _490  and  _491
REMARK  192  A    between atoms: _496  and  _498
REMARK  193  A    between atoms: _498  and  _499
REMARK  194  A    between atoms: _498  and  _501
REMARK  195  A    between atoms: _501  and  _502
REMARK  196  A    between atoms: _505  and  _507
REMARK  197  A    between atoms: _507  and  _508
REMARK  198  A    between atoms: _507  and  _510
REMARK  199  A    between atoms: _510  and  _511
REMARK  200  A    between atoms: _511  and  _512
REMARK  201  A    between atoms: _515  and  _517
REMARK  202  A    between atoms: _517  and  _518
REMARK  203  A    between atoms: _517  and  _520
REMARK  204  A    between atoms: _520  and  _521
REMARK  205  A    between atoms: _521  and  _522
REMARK  206  A    between atoms: _522  and  _523
REMARK  207  A    between atoms: _532  and  _534
REMARK  208  A    between atoms: _534  and  _535
REMARK  209  A    between atoms: _534  and  _537
REMARK  210  A    between atoms: _537  and  _538
REMARK  211  A    between atoms: _541  and  _543
REMARK  212  A    between atoms: _543  and  _544
REMARK  213  A    between atoms: _543  and  _546
REMARK  214  A    between atoms: _546  and  _547
REMARK  215  A    between atoms: _550  and  _552
REMARK  216  A    between atoms: _552  and  _553
REMARK  217  A    between atoms: _552  and  _555
REMARK  218  A    between atoms: _559  and  _560
REMARK  219  A    between atoms: _565  and  _567
REMARK  220  A    between atoms: _567  and  _568
REMARK  221  A    between atoms: _567  and  _570
REMARK  222  A    between atoms: _570  and  _571
REMARK  223  A    between atoms: _576  and  _578
REMARK  224  A    between atoms: _578  and  _579
REMARK  225  A    between atoms: _578  and  _581
REMARK  226  A    between atoms: _581  and  _582
REMARK  227  A    between atoms: _587  and  _588
REMARK  228  A    between atoms: _590  and  _592
REMARK  229  A    between atoms: _592  and  _593
REMARK  230  A    between atoms: _592  and  _595
REMARK  231  A    between atoms: _595  and  _596
REMARK  232  A    between atoms: _599  and  _601
REMARK  233  A    between atoms: _601  and  _602
REMARK  234  A    between atoms: _601  and  _604
REMARK  235  A    between atoms: _604  and  _605
REMARK  236  A    between atoms: _605  and  _606
REMARK  237  A    between atoms: _608  and  _610
REMARK  238  A    between atoms: _610  and  _611
REMARK  239  A    between atoms: _610  and  _613
REMARK  240  A    between atoms: _613  and  _614
REMARK  241  A    between atoms: _614  and  _615
REMARK  242  A    between atoms: _615  and  _616
REMARK  243  A    between atoms: _625  and  _627
REMARK  244  A    between atoms: _627  and  _628
REMARK  245  A    between atoms: _630  and  _632
REMARK  246  A    between atoms: _632  and  _633
REMARK  247  A    between atoms: _632  and  _635
REMARK  248  A    between atoms: _635  and  _636
REMARK  249  A    between atoms: _642  and  _644
REMARK  250  A    between atoms: _644  and  _645
REMARK  251  A    between atoms: _644  and  _647
REMARK  252  A    between atoms: _647  and  _648
REMARK  253  A    between atoms: _648  and  _649
REMARK  254  A    between atoms: _651  and  _653
REMARK  255  A    between atoms: _653  and  _654
REMARK  256  A    between atoms: _653  and  _656
REMARK  257  A    between atoms: _656  and  _657
REMARK                            x       y       z     vdW  Elec       q    Type
REMARK                         _______ _______ _______ _____ _____    ______ ____
ROOT
ATOM      1  O   HOH     1       9.655  22.740  25.296  0.00  0.00    +0.000 OA
ENDROOT
TORSDOF 0
REMARK  Name = ../refined-set-2016/1ex8/1ex8_pocket.pdb
REMARK  257 active torsions:
REMARK  status: ('A' for Active; 'I' for Inactive)
REMARK    1  A    between atoms: _1  and  _3
REMARK    2  A    between atoms: _3  and  _4
REMARK    3  A    between atoms: _3  and  _6
REMARK    4  A    between atoms: _6  and  _7
REMARK    5  A    between atoms: _12  and  _13
REMARK    6  A    between atoms: _15  and  _17
REMARK    7  A    between atoms: _17  and  _18
REMARK    8  A    between atoms: _17  and  _20
REMARK    9  A    between atoms: _20  and  _21
REMARK   10  A    between atoms: _24  and  _26
REMARK   11  A    between atoms: _26  and  _27
REMARK   12  A    between atoms: _30  and  _32
REMARK   13  A    between atoms: _32  and  _33
REMARK   14  A    between atoms: _32  and  _35
REMARK   15  A    between atoms: _35  and  _36
REMARK   16  A    between atoms: _39  and  _41
REMARK   17  A    between atoms: _41  and  _42
REMARK   18  A    between atoms: _44  and  _46
REMARK   19  A    between atoms: _46  and  _47
REMARK   20  A    between atoms: _46  and  _49
REMARK   21  A    between atoms: _49  and  _50
REMARK   22  A    between atoms: _52  and  _54
REMARK   23  A    between atoms: _54  and  _55
REMARK   24  A    between atoms: _54  and  _57
REMARK   25  A    between atoms: _57  and  _58
REMARK   26  A    between atoms: _63  and  _65
REMARK   27  A    between atoms: _65  and  _66
REMARK   28  A    between atoms: _65  and  _68
REMARK   29  A    between atoms: _68  and  _69
REMARK   30  A    between atoms: _74  and  _75
REMARK   31  A    between atoms: _77  and  _79
REMARK   32  A    between atoms: _79  and  _80
REMARK   33  A    between atoms: _79  and  _82
REMARK   34  A    between atoms: _82  and  _83
REMARK   35  A    between atoms: _83  and  _84
REMARK   36  A    between atoms: _84  and  _85
REMARK   37  A    between atoms: _94  and  _96
REMARK   38  A    between atoms: _96  and  _97
REMARK   39  A    between atoms: _96  and  _99
REMARK   40  A    between atoms: _99  and  _100
REMARK   41  A    between atoms: _104  and  _105
REMARK   42  A    between atoms: _111  and  _112
REMARK   43  A    between atoms: _117  and  _119
REMARK   44  A    between atoms: _119  and  _120
REMARK   45  A    between atoms: _119  and  _122
REMARK   46  A    between atoms: _122  and  _123
REMARK   47  A    between atoms: _126  and  _128
REMARK   48  A    between atoms: _128  and  _129
REMARK   49  A    between atoms: _132  and  _133
REMARK   50  A    between atoms: _138  and  _140
REMARK   51  A    between atoms: _140  and  _141
REMARK   52  A    between atoms: _140  and  _143
REMARK   53  A    between atoms: _143  and  _144
REMARK   54  A    between atoms: _144  and  _145
REMARK   55  A    between atoms: _150  and  _152
REMARK   56  A    between atoms: _152  and  _153
REMARK   57  A    between atoms: _152  and  _155
REMARK   58  A    between atoms: _155  and  _156
REMARK   59  A    between atoms: _156  and  _157
REMARK   60  A    between atoms: _163  and  _164
REMARK   61  A    between atoms: _169  and  _171
REMARK   62  A    between atoms: _171  and  _172
REMARK   63  A    between atoms: _171  and  _174
REMARK   64  A    between atoms: _174  and  _175
REMARK   65  A    between atoms: _178  and  _180
REMARK   66  A    between atoms: _180  and  _181
REMARK   67  A    between atoms: _180  and  _183
REMARK   68  A    between atoms: _183  and  _184
REMARK   69  A    between atoms: _189  and  _190
REMARK   70  A    between atoms: _192  and  _194
REMARK   71  A    between atoms: _194  and  _195
REMARK   72  A    between atoms: _194  and  _197
REMARK   73  A    between atoms: _197  and  _198
REMARK   74  A    between atoms: _201  and  _203
REMARK   75  A    between atoms: _203  and  _204
REMARK   76  A    between atoms: _203  and  _206
REMARK   77  A    between atoms: _206  and  _207
REMARK   78  A    between atoms: _212  and  _214
REMARK   79  A    between atoms: _214  and  _215
REMARK   80  A    between atoms: _218  and  _220
REMARK   81  A    between atoms: _220  and  _221
REMARK   82  A    between atoms: _220  and  _223
REMARK   83  A    between atoms: _223  and  _224
REMARK   84  A    between atoms: _224  and  _225
REMARK   85  A    between atoms: _228  and  _230
REMARK   86  A    between atoms: _230  and  _231
REMARK   87  A    between atoms: _230  and  _233
REMARK   88  A    between atoms: _233  and  _234
REMARK   89  A    between atoms: _237  and  _239
REMARK   90  A    between atoms: _239  and  _240
REMARK   91  A    between atoms: _239  and  _242
REMARK   92  A    between atoms: _242  and  _243
REMARK   93  A    between atoms: _246  and  _248
REMARK   94  A    between atoms: _248  and  _249
REMARK   95  A    between atoms: _248  and  _251
REMARK   96  A    between atoms: _251  and  _252
REMARK   97  A    between atoms: _252  and  _253
REMARK   98  A    between atoms: _258  and  _260
REMARK   99  A    between atoms: _260  and  _261
REMARK  100  A    between atoms: _260  and  _263
REMARK  101  A    between atoms: _263  and  _264
REMARK  102  A    between atoms: _264  and  _265
REMARK  103  A    between atoms: _268  and  _270
REMARK  104  A    between atoms: _270  and  _271
REMARK  105  A    between atoms: _270  and  _273
REMARK  106  A    between atoms: _273  and  _274
REMARK  107  A    between atoms: _274  and  _275
REMARK  108  A    between atoms: _275  and  _276
REMARK  109  A    between atoms: _285  and  _287
REMARK  110  A    between atoms: _287  and  _288
REMARK  111  A    between atoms: _287  and  _290
REMARK  112  A    between atoms: _293  and  _295
REMARK  113  A    between atoms: _295  and  _296
REMARK  114  A    between atoms: _295  and  _298
REMARK  115  A    between atoms: _298  and  _299
REMARK  116  A    between atoms: _299  and  _300
REMARK  117  A    between atoms: _300  and  _301
REMARK  118  A    between atoms: _310  and  _312
REMARK  119  A    between atoms: _312  and  _313
REMARK  120  A    between atoms: _312  and  _315
REMARK  121  A    between atoms: _315  and  _316
REMARK  122  A    between atoms: _316  and  _317
REMARK  123  A    between atoms: _317  and  _318
REMARK  124  A    between atoms: _318  and  _319
REMARK  125  A    between atoms: _323  and  _325
REMARK  126  A    between atoms: _325  and  _326
REMARK  127  A    between atoms: _329  and  _331
REMARK  128  A    between atoms: _331  and  _332
REMARK  129  A    between atoms: _331  and  _334
REMARK  130  A    between atoms: _334  and  _335
REMARK  131  A    between atoms: _335  and  _336
REMARK  132  A    between atoms: _339  and  _341
REMARK  133  A    between atoms: _341  and  _342
REMARK  134  A    between atoms: _341  and  _344
REMARK  135  A    between atoms: _344  and  _345
REMARK  136  A    between atoms: _345  and  _346
REMARK  137  A    between atoms: _346  and  _347
REMARK  138  A    between atoms: _356  and  _358
REMARK  139  A    between atoms: _358  and  _359
REMARK  140  A    between atoms: _358  and  _361
REMARK  141  A    between atoms: _361  and  _362
REMARK  142  A    between atoms: _372  and  _374
REMARK  143  A    between atoms: _374  and  _375
REMARK  144  A    between atoms: _378  and  _379
REMARK  145  A    between atoms: _384  and  _386
REMARK  146  A    between atoms: _386  and  _387
REMARK  147  A    between atoms: _386  and  _389
REMARK  148  A    between atoms: _389  and  _390
REMARK  149  A    between atoms: _390  and  _391
REMARK  150  A    between atoms: _391  and  _392
REMARK  151  A    between atoms: _401  and  _403
REMARK  152  A    between atoms: _403  and  _404
REMARK  153  A    between atoms: _403  and  _406
REMARK  154  A    between atoms: _406  and  _407
REMARK  155  A    between atoms: _410  and  _412
REMARK  156  A    between atoms: _412  and  _413
REMARK  157  A    between atoms: _412  and  _415
REMARK  158  A    between atoms: _415  and  _416
REMARK  159  A    between atoms: _419  and  _421
REMARK  160  A    between atoms: _421  and  _422
REMARK  161  A    between atoms: _421  and  _424
REMARK  162  A    between atoms: _424  and  _425
REMARK  163  A    between atoms: _428  and  _430
REMARK  164  A    between atoms: _430  and  _431
REMARK  165  A    between atoms: _430  and  _433
REMARK  166  A    between atoms: _433  and  _434
REMARK  167  A    between atoms: _437  and  _439
REMARK  168  A    between atoms: _439  and  _440
REMARK  169  A    between atoms: _439  and  _442
REMARK  170  A    between atoms: _442  and  _443
REMARK  171  A    between atoms: _446  and  _448
REMARK  172  A    between atoms: _448  and  _449
REMARK  173  A    between atoms: _448  and  _451
REMARK  174  A    between atoms: _451  and  _452
REMARK  175  A    between atoms: _452  and  _453
REMARK  176  A    between atoms: _455  and  _457
REMARK  177  A    between atoms: _457  and  _458
REMARK  178  A    between atoms: _457  and  _460
REMARK  179  A    between atoms: _460  and  _461
REMARK  180  A    between atoms: _464  and  _466
REMARK  181  A    between atoms: _466  and  _467
REMARK  182  A    between atoms: _466  and  _469
REMARK  183  A    between atoms: _469  and  _470
REMARK  184  A    between atoms: _476  and  _478
REMARK  185  A    between atoms: _478  and  _479
REMARK  186  A    between atoms: _478  and  _481
REMARK  187  A    between atoms: _481  and  _482
REMARK  188  A    between atoms: _485  and  _487
REMARK  189  A    between atoms: _487  and  _488
REMARK  190  A    between atoms: _487  and  _490
REMARK  191  A    between atoms: _490  and  _491
REMARK  192  A    between atoms: _496  and  _498
REMARK  193  A    between atoms: _498  and  _499
REMARK  194  A    between atoms: _498  and  _501
REMARK  195  A    between atoms: _501  and  _502
REMARK  196  A    between atoms: _505  and  _507
REMARK  197  A    between atoms: _507  and  _508
REMARK  198  A    between atoms: _507  and  _510
REMARK  199  A    between atoms: _510  and  _511
REMARK  200  A    between atoms: _511  and  _512
REMARK  201  A    between atoms: _515  and  _517
REMARK  202  A    between atoms: _517  and  _518
REMARK  203  A    between atoms: _517  and  _520
REMARK  204  A    between atoms: _520  and  _521
REMARK  205  A    between atoms: _521  and  _522
REMARK  206  A    between atoms: _522  and  _523
REMARK  207  A    between atoms: _532  and  _534
REMARK  208  A    between atoms: _534  and  _535
REMARK  209  A    between atoms: _534  and  _537
REMARK  210  A    between atoms: _537  and  _538
REMARK  211  A    between atoms: _541  and  _543
REMARK  212  A    between atoms: _543  and  _544
REMARK  213  A    between atoms: _543  and  _546
REMARK  214  A    between atoms: _546  and  _547
REMARK  215  A    between atoms: _550  and  _552
REMARK  216  A    between atoms: _552  and  _553
REMARK  217  A    between atoms: _552  and  _555
REMARK  218  A    between atoms: _559  and  _560
REMARK  219  A    between atoms: _565  and  _567
REMARK  220  A    between atoms: _567  and  _568
REMARK  221  A    between atoms: _567  and  _570
REMARK  222  A    between atoms: _570  and  _571
REMARK  223  A    between atoms: _576  and  _578
REMARK  224  A    between atoms: _578  and  _579
REMARK  225  A    between atoms: _578  and  _581
REMARK  226  A    between atoms: _581  and  _582
REMARK  227  A    between atoms: _587  and  _588
REMARK  228  A    between atoms: _590  and  _592
REMARK  229  A    between atoms: _592  and  _593
REMARK  230  A    between atoms: _592  and  _595
REMARK  231  A    between atoms: _595  and  _596
REMARK  232  A    between atoms: _599  and  _601
REMARK  233  A    between atoms: _601  and  _602
REMARK  234  A    between atoms: _601  and  _604
REMARK  235  A    between atoms: _604  and  _605
REMARK  236  A    between atoms: _605  and  _606
REMARK  237  A    between atoms: _608  and  _610
REMARK  238  A    between atoms: _610  and  _611
REMARK  239  A    between atoms: _610  and  _613
REMARK  240  A    between atoms: _613  and  _614
REMARK  241  A    between atoms: _614  and  _615
REMARK  242  A    between atoms: _615  and  _616
REMARK  243  A    between atoms: _625  and  _627
REMARK  244  A    between atoms: _627  and  _628
REMARK  245  A    between atoms: _630  and  _632
REMARK  246  A    between atoms: _632  and  _633
REMARK  247  A    between atoms: _632  and  _635
REMARK  248  A    between atoms: _635  and  _636
REMARK  249  A    between atoms: _642  and  _644
REMARK  250  A    between atoms: _644  and  _645
REMARK  251  A    between atoms: _644  and  _647
REMARK  252  A    between atoms: _647  and  _648
REMARK  253  A    between atoms: _648  and  _649
REMARK  254  A    between atoms: _651  and  _653
REMARK  255  A    between atoms: _653  and  _654
REMARK  256  A    between atoms: _653  and  _656
REMARK  257  A    between atoms: _656  and  _657
REMARK                            x       y       z     vdW  Elec       q    Type
REMARK                         _______ _______ _______ _____ _____    ______ ____
ROOT
ATOM      1  O   HOH     1       8.386  18.769  24.857  0.00  0.00    +0.000 OA
ENDROOT
TORSDOF 0
REMARK  Name = ../refined-set-2016/1ex8/1ex8_pocket.pdb
REMARK  257 active torsions:
REMARK  status: ('A' for Active; 'I' for Inactive)
REMARK    1  A    between atoms: _1  and  _3
REMARK    2  A    between atoms: _3  and  _4
REMARK    3  A    between atoms: _3  and  _6
REMARK    4  A    between atoms: _6  and  _7
REMARK    5  A    between atoms: _12  and  _13
REMARK    6  A    between atoms: _15  and  _17
REMARK    7  A    between atoms: _17  and  _18
REMARK    8  A    between atoms: _17  and  _20
REMARK    9  A    between atoms: _20  and  _21
REMARK   10  A    between atoms: _24  and  _26
REMARK   11  A    between atoms: _26  and  _27
REMARK   12  A    between atoms: _30  and  _32
REMARK   13  A    between atoms: _32  and  _33
REMARK   14  A    between atoms: _32  and  _35
REMARK   15  A    between atoms: _35  and  _36
REMARK   16  A    between atoms: _39  and  _41
REMARK   17  A    between atoms: _41  and  _42
REMARK   18  A    between atoms: _44  and  _46
REMARK   19  A    between atoms: _46  and  _47
REMARK   20  A    between atoms: _46  and  _49
REMARK   21  A    between atoms: _49  and  _50
REMARK   22  A    between atoms: _52  and  _54
REMARK   23  A    between atoms: _54  and  _55
REMARK   24  A    between atoms: _54  and  _57
REMARK   25  A    between atoms: _57  and  _58
REMARK   26  A    between atoms: _63  and  _65
REMARK   27  A    between atoms: _65  and  _66
REMARK   28  A    between atoms: _65  and  _68
REMARK   29  A    between atoms: _68  and  _69
REMARK   30  A    between atoms: _74  and  _75
REMARK   31  A    between atoms: _77  and  _79
REMARK   32  A    between atoms: _79  and  _80
REMARK   33  A    between atoms: _79  and  _82
REMARK   34  A    between atoms: _82  and  _83
REMARK   35  A    between atoms: _83  and  _84
REMARK   36  A    between atoms: _84  and  _85
REMARK   37  A    between atoms: _94  and  _96
REMARK   38  A    between atoms: _96  and  _97
REMARK   39  A    between atoms: _96  and  _99
REMARK   40  A    between atoms: _99  and  _100
REMARK   41  A    between atoms: _104  and  _105
REMARK   42  A    between atoms: _111  and  _112
REMARK   43  A    between atoms: _117  and  _119
REMARK   44  A    between atoms: _119  and  _120
REMARK   45  A    between atoms: _119  and  _122
REMARK   46  A    between atoms: _122  and  _123
REMARK   47  A    between atoms: _126  and  _128
REMARK   48  A    between atoms: _128  and  _129
REMARK   49  A    between atoms: _132  and  _133
REMARK   50  A    between atoms: _138  and  _140
REMARK   51  A    between atoms: _140  and  _141
REMARK   52  A    between atoms: _140  and  _143
REMARK   53  A    between atoms: _143  and  _144
REMARK   54  A    between atoms: _144  and  _145
REMARK   55  A    between atoms: _150  and  _152
REMARK   56  A    between atoms: _152  and  _153
REMARK   57  A    between atoms: _152  and  _155
REMARK   58  A    between atoms: _155  and  _156
REMARK   59  A    between atoms: _156  and  _157
REMARK   60  A    between atoms: _163  and  _164
REMARK   61  A    between atoms: _169  and  _171
REMARK   62  A    between atoms: _171  and  _172
REMARK   63  A    between atoms: _171  and  _174
REMARK   64  A    between atoms: _174  and  _175
REMARK   65  A    between atoms: _178  and  _180
REMARK   66  A    between atoms: _180  and  _181
REMARK   67  A    between atoms: _180  and  _183
REMARK   68  A    between atoms: _183  and  _184
REMARK   69  A    between atoms: _189  and  _190
REMARK   70  A    between atoms: _192  and  _194
REMARK   71  A    between atoms: _194  and  _195
REMARK   72  A    between atoms: _194  and  _197
REMARK   73  A    between atoms: _197  and  _198
REMARK   74  A    between atoms: _201  and  _203
REMARK   75  A    between atoms: _203  and  _204
REMARK   76  A    between atoms: _203  and  _206
REMARK   77  A    between atoms: _206  and  _207
REMARK   78  A    between atoms: _212  and  _214
REMARK   79  A    between atoms: _214  and  _215
REMARK   80  A    between atoms: _218  and  _220
REMARK   81  A    between atoms: _220  and  _221
REMARK   82  A    between atoms: _220  and  _223
REMARK   83  A    between atoms: _223  and  _224
REMARK   84  A    between atoms: _224  and  _225
REMARK   85  A    between atoms: _228  and  _230
REMARK   86  A    between atoms: _230  and  _231
REMARK   87  A    between atoms: _230  and  _233
REMARK   88  A    between atoms: _233  and  _234
REMARK   89  A    between atoms: _237  and  _239
REMARK   90  A    between atoms: _239  and  _240
REMARK   91  A    between atoms: _239  and  _242
REMARK   92  A    between atoms: _242  and  _243
REMARK   93  A    between atoms: _246  and  _248
REMARK   94  A    between atoms: _248  and  _249
REMARK   95  A    between atoms: _248  and  _251
REMARK   96  A    between atoms: _251  and  _252
REMARK   97  A    between atoms: _252  and  _253
REMARK   98  A    between atoms: _258  and  _260
REMARK   99  A    between atoms: _260  and  _261
REMARK  100  A    between atoms: _260  and  _263
REMARK  101  A    between atoms: _263  and  _264
REMARK  102  A    between atoms: _264  and  _265
REMARK  103  A    between atoms: _268  and  _270
REMARK  104  A    between atoms: _270  and  _271
REMARK  105  A    between atoms: _270  and  _273
REMARK  106  A    between atoms: _273  and  _274
REMARK  107  A    between atoms: _274  and  _275
REMARK  108  A    between atoms: _275  and  _276
REMARK  109  A    between atoms: _285  and  _287
REMARK  110  A    between atoms: _287  and  _288
REMARK  111  A    between atoms: _287  and  _290
REMARK  112  A    between atoms: _293  and  _295
REMARK  113  A    between atoms: _295  and  _296
REMARK  114  A    between atoms: _295  and  _298
REMARK  115  A    between atoms: _298  and  _299
REMARK  116  A    between atoms: _299  and  _300
REMARK  117  A    between atoms: _300  and  _301
REMARK  118  A    between atoms: _310  and  _312
REMARK  119  A    between atoms: _312  and  _313
REMARK  120  A    between atoms: _312  and  _315
REMARK  121  A    between atoms: _315  and  _316
REMARK  122  A    between atoms: _316  and  _317
REMARK  123  A    between atoms: _317  and  _318
REMARK  124  A    between atoms: _318  and  _319
REMARK  125  A    between atoms: _323  and  _325
REMARK  126  A    between atoms: _325  and  _326
REMARK  127  A    between atoms: _329  and  _331
REMARK  128  A    between atoms: _331  and  _332
REMARK  129  A    between atoms: _331  and  _334
REMARK  130  A    between atoms: _334  and  _335
REMARK  131  A    between atoms: _335  and  _336
REMARK  132  A    between atoms: _339  and  _341
REMARK  133  A    between atoms: _341  and  _342
REMARK  134  A    between atoms: _341  and  _344
REMARK  135  A    between atoms: _344  and  _345
REMARK  136  A    between atoms: _345  and  _346
REMARK  137  A    between atoms: _346  and  _347
REMARK  138  A    between atoms: _356  and  _358
REMARK  139  A    between atoms: _358  and  _359
REMARK  140  A    between atoms: _358  and  _361
REMARK  141  A    between atoms: _361  and  _362
REMARK  142  A    between atoms: _372  and  _374
REMARK  143  A    between atoms: _374  and  _375
REMARK  144  A    between atoms: _378  and  _379
REMARK  145  A    between atoms: _384  and  _386
REMARK  146  A    between atoms: _386  and  _387
REMARK  147  A    between atoms: _386  and  _389
REMARK  148  A    between atoms: _389  and  _390
REMARK  149  A    between atoms: _390  and  _391
REMARK  150  A    between atoms: _391  and  _392
REMARK  151  A    between atoms: _401  and  _403
REMARK  152  A    between atoms: _403  and  _404
REMARK  153  A    between atoms: _403  and  _406
REMARK  154  A    between atoms: _406  and  _407
REMARK  155  A    between atoms: _410  and  _412
REMARK  156  A    between atoms: _412  and  _413
REMARK  157  A    between atoms: _412  and  _415
REMARK  158  A    between atoms: _415  and  _416
REMARK  159  A    between atoms: _419  and  _421
REMARK  160  A    between atoms: _421  and  _422
REMARK  161  A    between atoms: _421  and  _424
REMARK  162  A    between atoms: _424  and  _425
REMARK  163  A    between atoms: _428  and  _430
REMARK  164  A    between atoms: _430  and  _431
REMARK  165  A    between atoms: _430  and  _433
REMARK  166  A    between atoms: _433  and  _434
REMARK  167  A    between atoms: _437  and  _439
REMARK  168  A    between atoms: _439  and  _440
REMARK  169  A    between atoms: _439  and  _442
REMARK  170  A    between atoms: _442  and  _443
REMARK  171  A    between atoms: _446  and  _448
REMARK  172  A    between atoms: _448  and  _449
REMARK  173  A    between atoms: _448  and  _451
REMARK  174  A    between atoms: _451  and  _452
REMARK  175  A    between atoms: _452  and  _453
REMARK  176  A    between atoms: _455  and  _457
REMARK  177  A    between atoms: _457  and  _458
REMARK  178  A    between atoms: _457  and  _460
REMARK  179  A    between atoms: _460  and  _461
REMARK  180  A    between atoms: _464  and  _466
REMARK  181  A    between atoms: _466  and  _467
REMARK  182  A    between atoms: _466  and  _469
REMARK  183  A    between atoms: _469  and  _470
REMARK  184  A    between atoms: _476  and  _478
REMARK  185  A    between atoms: _478  and  _479
REMARK  186  A    between atoms: _478  and  _481
REMARK  187  A    between atoms: _481  and  _482
REMARK  188  A    between atoms: _485  and  _487
REMARK  189  A    between atoms: _487  and  _488
REMARK  190  A    between atoms: _487  and  _490
REMARK  191  A    between atoms: _490  and  _491
REMARK  192  A    between atoms: _496  and  _498
REMARK  193  A    between atoms: _498  and  _499
REMARK  194  A    between atoms: _498  and  _501
REMARK  195  A    between atoms: _501  and  _502
REMARK  196  A    between atoms: _505  and  _507
REMARK  197  A    between atoms: _507  and  _508
REMARK  198  A    between atoms: _507  and  _510
REMARK  199  A    between atoms: _510  and  _511
REMARK  200  A    between atoms: _511  and  _512
REMARK  201  A    between atoms: _515  and  _517
REMARK  202  A    between atoms: _517  and  _518
REMARK  203  A    between atoms: _517  and  _520
REMARK  204  A    between atoms: _520  and  _521
REMARK  205  A    between atoms: _521  and  _522
REMARK  206  A    between atoms: _522  and  _523
REMARK  207  A    between atoms: _532  and  _534
REMARK  208  A    between atoms: _534  and  _535
REMARK  209  A    between atoms: _534  and  _537
REMARK  210  A    between atoms: _537  and  _538
REMARK  211  A    between atoms: _541  and  _543
REMARK  212  A    between atoms: _543  and  _544
REMARK  213  A    between atoms: _543  and  _546
REMARK  214  A    between atoms: _546  and  _547
REMARK  215  A    between atoms: _550  and  _552
REMARK  216  A    between atoms: _552  and  _553
REMARK  217  A    between atoms: _552  and  _555
REMARK  218  A    between atoms: _559  and  _560
REMARK  219  A    between atoms: _565  and  _567
REMARK  220  A    between atoms: _567  and  _568
REMARK  221  A    between atoms: _567  and  _570
REMARK  222  A    between atoms: _570  and  _571
REMARK  223  A    between atoms: _576  and  _578
REMARK  224  A    between atoms: _578  and  _579
REMARK  225  A    between atoms: _578  and  _581
REMARK  226  A    between atoms: _581  and  _582
REMARK  227  A    between atoms: _587  and  _588
REMARK  228  A    between atoms: _590  and  _592
REMARK  229  A    between atoms: _592  and  _593
REMARK  230  A    between atoms: _592  and  _595
REMARK  231  A    between atoms: _595  and  _596
REMARK  232  A    between atoms: _599  and  _601
REMARK  233  A    between atoms: _601  and  _602
REMARK  234  A    between atoms: _601  and  _604
REMARK  235  A    between atoms: _604  and  _605
REMARK  236  A    between atoms: _605  and  _606
REMARK  237  A    between atoms: _608  and  _610
REMARK  238  A    between atoms: _610  and  _611
REMARK  239  A    between atoms: _610  and  _613
REMARK  240  A    between atoms: _613  and  _614
REMARK  241  A    between atoms: _614  and  _615
REMARK  242  A    between atoms: _615  and  _616
REMARK  243  A    between atoms: _625  and  _627
REMARK  244  A    between atoms: _627  and  _628
REMARK  245  A    between atoms: _630  and  _632
REMARK  246  A    between atoms: _632  and  _633
REMARK  247  A    between atoms: _632  and  _635
REMARK  248  A    between atoms: _635  and  _636
REMARK  249  A    between atoms: _642  and  _644
REMARK  250  A    between atoms: _644  and  _645
REMARK  251  A    between atoms: _644  and  _647
REMARK  252  A    between atoms: _647  and  _648
REMARK  253  A    between atoms: _648  and  _649
REMARK  254  A    between atoms: _651  and  _653
REMARK  255  A    between atoms: _653  and  _654
REMARK  256  A    between atoms: _653  and  _656
REMARK  257  A    between atoms: _656  and  _657
REMARK                            x       y       z     vdW  Elec       q    Type
REMARK                         _______ _______ _______ _____ _____    ______ ____
ROOT
ATOM      1  O   HOH     1       6.448  10.916  22.268  0.00  0.00    +0.000 OA
ENDROOT
TORSDOF 0
REMARK  Name = ../refined-set-2016/1ex8/1ex8_pocket.pdb
REMARK  257 active torsions:
REMARK  status: ('A' for Active; 'I' for Inactive)
REMARK    1  A    between atoms: _1  and  _3
REMARK    2  A    between atoms: _3  and  _4
REMARK    3  A    between atoms: _3  and  _6
REMARK    4  A    between atoms: _6  and  _7
REMARK    5  A    between atoms: _12  and  _13
REMARK    6  A    between atoms: _15  and  _17
REMARK    7  A    between atoms: _17  and  _18
REMARK    8  A    between atoms: _17  and  _20
REMARK    9  A    between atoms: _20  and  _21
REMARK   10  A    between atoms: _24  and  _26
REMARK   11  A    between atoms: _26  and  _27
REMARK   12  A    between atoms: _30  and  _32
REMARK   13  A    between atoms: _32  and  _33
REMARK   14  A    between atoms: _32  and  _35
REMARK   15  A    between atoms: _35  and  _36
REMARK   16  A    between atoms: _39  and  _41
REMARK   17  A    between atoms: _41  and  _42
REMARK   18  A    between atoms: _44  and  _46
REMARK   19  A    between atoms: _46  and  _47
REMARK   20  A    between atoms: _46  and  _49
REMARK   21  A    between atoms: _49  and  _50
REMARK   22  A    between atoms: _52  and  _54
REMARK   23  A    between atoms: _54  and  _55
REMARK   24  A    between atoms: _54  and  _57
REMARK   25  A    between atoms: _57  and  _58
REMARK   26  A    between atoms: _63  and  _65
REMARK   27  A    between atoms: _65  and  _66
REMARK   28  A    between atoms: _65  and  _68
REMARK   29  A    between atoms: _68  and  _69
REMARK   30  A    between atoms: _74  and  _75
REMARK   31  A    between atoms: _77  and  _79
REMARK   32  A    between atoms: _79  and  _80
REMARK   33  A    between atoms: _79  and  _82
REMARK   34  A    between atoms: _82  and  _83
REMARK   35  A    between atoms: _83  and  _84
REMARK   36  A    between atoms: _84  and  _85
REMARK   37  A    between atoms: _94  and  _96
REMARK   38  A    between atoms: _96  and  _97
REMARK   39  A    between atoms: _96  and  _99
REMARK   40  A    between atoms: _99  and  _100
REMARK   41  A    between atoms: _104  and  _105
REMARK   42  A    between atoms: _111  and  _112
REMARK   43  A    between atoms: _117  and  _119
REMARK   44  A    between atoms: _119  and  _120
REMARK   45  A    between atoms: _119  and  _122
REMARK   46  A    between atoms: _122  and  _123
REMARK   47  A    between atoms: _126  and  _128
REMARK   48  A    between atoms: _128  and  _129
REMARK   49  A    between atoms: _132  and  _133
REMARK   50  A    between atoms: _138  and  _140
REMARK   51  A    between atoms: _140  and  _141
REMARK   52  A    between atoms: _140  and  _143
REMARK   53  A    between atoms: _143  and  _144
REMARK   54  A    between atoms: _144  and  _145
REMARK   55  A    between atoms: _150  and  _152
REMARK   56  A    between atoms: _152  and  _153
REMARK   57  A    between atoms: _152  and  _155
REMARK   58  A    between atoms: _155  and  _156
REMARK   59  A    between atoms: _156  and  _157
REMARK   60  A    between atoms: _163  and  _164
REMARK   61  A    between atoms: _169  and  _171
REMARK   62  A    between atoms: _171  and  _172
REMARK   63  A    between atoms: _171  and  _174
REMARK   64  A    between atoms: _174  and  _175
REMARK   65  A    between atoms: _178  and  _180
REMARK   66  A    between atoms: _180  and  _181
REMARK   67  A    between atoms: _180  and  _183
REMARK   68  A    between atoms: _183  and  _184
REMARK   69  A    between atoms: _189  and  _190
REMARK   70  A    between atoms: _192  and  _194
REMARK   71  A    between atoms: _194  and  _195
REMARK   72  A    between atoms: _194  and  _197
REMARK   73  A    between atoms: _197  and  _198
REMARK   74  A    between atoms: _201  and  _203
REMARK   75  A    between atoms: _203  and  _204
REMARK   76  A    between atoms: _203  and  _206
REMARK   77  A    between atoms: _206  and  _207
REMARK   78  A    between atoms: _212  and  _214
REMARK   79  A    between atoms: _214  and  _215
REMARK   80  A    between atoms: _218  and  _220
REMARK   81  A    between atoms: _220  and  _221
REMARK   82  A    between atoms: _220  and  _223
REMARK   83  A    between atoms: _223  and  _224
REMARK   84  A    between atoms: _224  and  _225
REMARK   85  A    between atoms: _228  and  _230
REMARK   86  A    between atoms: _230  and  _231
REMARK   87  A    between atoms: _230  and  _233
REMARK   88  A    between atoms: _233  and  _234
REMARK   89  A    between atoms: _237  and  _239
REMARK   90  A    between atoms: _239  and  _240
REMARK   91  A    between atoms: _239  and  _242
REMARK   92  A    between atoms: _242  and  _243
REMARK   93  A    between atoms: _246  and  _248
REMARK   94  A    between atoms: _248  and  _249
REMARK   95  A    between atoms: _248  and  _251
REMARK   96  A    between atoms: _251  and  _252
REMARK   97  A    between atoms: _252  and  _253
REMARK   98  A    between atoms: _258  and  _260
REMARK   99  A    between atoms: _260  and  _261
REMARK  100  A    between atoms: _260  and  _263
REMARK  101  A    between atoms: _263  and  _264
REMARK  102  A    between atoms: _264  and  _265
REMARK  103  A    between atoms: _268  and  _270
REMARK  104  A    between atoms: _270  and  _271
REMARK  105  A    between atoms: _270  and  _273
REMARK  106  A    between atoms: _273  and  _274
REMARK  107  A    between atoms: _274  and  _275
REMARK  108  A    between atoms: _275  and  _276
REMARK  109  A    between atoms: _285  and  _287
REMARK  110  A    between atoms: _287  and  _288
REMARK  111  A    between atoms: _287  and  _290
REMARK  112  A    between atoms: _293  and  _295
REMARK  113  A    between atoms: _295  and  _296
REMARK  114  A    between atoms: _295  and  _298
REMARK  115  A    between atoms: _298  and  _299
REMARK  116  A    between atoms: _299  and  _300
REMARK  117  A    between atoms: _300  and  _301
REMARK  118  A    between atoms: _310  and  _312
REMARK  119  A    between atoms: _312  and  _313
REMARK  120  A    between atoms: _312  and  _315
REMARK  121  A    between atoms: _315  and  _316
REMARK  122  A    between atoms: _316  and  _317
REMARK  123  A    between atoms: _317  and  _318
REMARK  124  A    between atoms: _318  and  _319
REMARK  125  A    between atoms: _323  and  _325
REMARK  126  A    between atoms: _325  and  _326
REMARK  127  A    between atoms: _329  and  _331
REMARK  128  A    between atoms: _331  and  _332
REMARK  129  A    between atoms: _331  and  _334
REMARK  130  A    between atoms: _334  and  _335
REMARK  131  A    between atoms: _335  and  _336
REMARK  132  A    between atoms: _339  and  _341
REMARK  133  A    between atoms: _341  and  _342
REMARK  134  A    between atoms: _341  and  _344
REMARK  135  A    between atoms: _344  and  _345
REMARK  136  A    between atoms: _345  and  _346
REMARK  137  A    between atoms: _346  and  _347
REMARK  138  A    between atoms: _356  and  _358
REMARK  139  A    between atoms: _358  and  _359
REMARK  140  A    between atoms: _358  and  _361
REMARK  141  A    between atoms: _361  and  _362
REMARK  142  A    between atoms: _372  and  _374
REMARK  143  A    between atoms: _374  and  _375
REMARK  144  A    between atoms: _378  and  _379
REMARK  145  A    between atoms: _384  and  _386
REMARK  146  A    between atoms: _386  and  _387
REMARK  147  A    between atoms: _386  and  _389
REMARK  148  A    between atoms: _389  and  _390
REMARK  149  A    between atoms: _390  and  _391
REMARK  150  A    between atoms: _391  and  _392
REMARK  151  A    between atoms: _401  and  _403
REMARK  152  A    between atoms: _403  and  _404
REMARK  153  A    between atoms: _403  and  _406
REMARK  154  A    between atoms: _406  and  _407
REMARK  155  A    between atoms: _410  and  _412
REMARK  156  A    between atoms: _412  and  _413
REMARK  157  A    between atoms: _412  and  _415
REMARK  158  A    between atoms: _415  and  _416
REMARK  159  A    between atoms: _419  and  _421
REMARK  160  A    between atoms: _421  and  _422
REMARK  161  A    between atoms: _421  and  _424
REMARK  162  A    between atoms: _424  and  _425
REMARK  163  A    between atoms: _428  and  _430
REMARK  164  A    between atoms: _430  and  _431
REMARK  165  A    between atoms: _430  and  _433
REMARK  166  A    between atoms: _433  and  _434
REMARK  167  A    between atoms: _437  and  _439
REMARK  168  A    between atoms: _439  and  _440
REMARK  169  A    between atoms: _439  and  _442
REMARK  170  A    between atoms: _442  and  _443
REMARK  171  A    between atoms: _446  and  _448
REMARK  172  A    between atoms: _448  and  _449
REMARK  173  A    between atoms: _448  and  _451
REMARK  174  A    between atoms: _451  and  _452
REMARK  175  A    between atoms: _452  and  _453
REMARK  176  A    between atoms: _455  and  _457
REMARK  177  A    between atoms: _457  and  _458
REMARK  178  A    between atoms: _457  and  _460
REMARK  179  A    between atoms: _460  and  _461
REMARK  180  A    between atoms: _464  and  _466
REMARK  181  A    between atoms: _466  and  _467
REMARK  182  A    between atoms: _466  and  _469
REMARK  183  A    between atoms: _469  and  _470
REMARK  184  A    between atoms: _476  and  _478
REMARK  185  A    between atoms: _478  and  _479
REMARK  186  A    between atoms: _478  and  _481
REMARK  187  A    between atoms: _481  and  _482
REMARK  188  A    between atoms: _485  and  _487
REMARK  189  A    between atoms: _487  and  _488
REMARK  190  A    between atoms: _487  and  _490
REMARK  191  A    between atoms: _490  and  _491
REMARK  192  A    between atoms: _496  and  _498
REMARK  193  A    between atoms: _498  and  _499
REMARK  194  A    between atoms: _498  and  _501
REMARK  195  A    between atoms: _501  and  _502
REMARK  196  A    between atoms: _505  and  _507
REMARK  197  A    between atoms: _507  and  _508
REMARK  198  A    between atoms: _507  and  _510
REMARK  199  A    between atoms: _510  and  _511
REMARK  200  A    between atoms: _511  and  _512
REMARK  201  A    between atoms: _515  and  _517
REMARK  202  A    between atoms: _517  and  _518
REMARK  203  A    between atoms: _517  and  _520
REMARK  204  A    between atoms: _520  and  _521
REMARK  205  A    between atoms: _521  and  _522
REMARK  206  A    between atoms: _522  and  _523
REMARK  207  A    between atoms: _532  and  _534
REMARK  208  A    between atoms: _534  and  _535
REMARK  209  A    between atoms: _534  and  _537
REMARK  210  A    between atoms: _537  and  _538
REMARK  211  A    between atoms: _541  and  _543
REMARK  212  A    between atoms: _543  and  _544
REMARK  213  A    between atoms: _543  and  _546
REMARK  214  A    between atoms: _546  and  _547
REMARK  215  A    between atoms: _550  and  _552
REMARK  216  A    between atoms: _552  and  _553
REMARK  217  A    between atoms: _552  and  _555
REMARK  218  A    between atoms: _559  and  _560
REMARK  219  A    between atoms: _565  and  _567
REMARK  220  A    between atoms: _567  and  _568
REMARK  221  A    between atoms: _567  and  _570
REMARK  222  A    between atoms: _570  and  _571
REMARK  223  A    between atoms: _576  and  _578
REMARK  224  A    between atoms: _578  and  _579
REMARK  225  A    between atoms: _578  and  _581
REMARK  226  A    between atoms: _581  and  _582
REMARK  227  A    between atoms: _587  and  _588
REMARK  228  A    between atoms: _590  and  _592
REMARK  229  A    between atoms: _592  and  _593
REMARK  230  A    between atoms: _592  and  _595
REMARK  231  A    between atoms: _595  and  _596
REMARK  232  A    between atoms: _599  and  _601
REMARK  233  A    between atoms: _601  and  _602
REMARK  234  A    between atoms: _601  and  _604
REMARK  235  A    between atoms: _604  and  _605
REMARK  236  A    between atoms: _605  and  _606
REMARK  237  A    between atoms: _608  and  _610
REMARK  238  A    between atoms: _610  and  _611
REMARK  239  A    between atoms: _610  and  _613
REMARK  240  A    between atoms: _613  and  _614
REMARK  241  A    between atoms: _614  and  _615
REMARK  242  A    between atoms: _615  and  _616
REMARK  243  A    between atoms: _625  and  _627
REMARK  244  A    between atoms: _627  and  _628
REMARK  245  A    between atoms: _630  and  _632
REMARK  246  A    between atoms: _632  and  _633
REMARK  247  A    between atoms: _632  and  _635
REMARK  248  A    between atoms: _635  and  _636
REMARK  249  A    between atoms: _642  and  _644
REMARK  250  A    between atoms: _644  and  _645
REMARK  251  A    between atoms: _644  and  _647
REMARK  252  A    between atoms: _647  and  _648
REMARK  253  A    between atoms: _648  and  _649
REMARK  254  A    between atoms: _651  and  _653
REMARK  255  A    between atoms: _653  and  _654
REMARK  256  A    between atoms: _653  and  _656
REMARK  257  A    between atoms: _656  and  _657
REMARK                            x       y       z     vdW  Elec       q    Type
REMARK                         _______ _______ _______ _____ _____    ______ ____
ROOT
ATOM      1  O   HOH     1       7.788  12.845  23.399  0.00  0.00    +0.000 OA
ENDROOT
TORSDOF 0
REMARK  Name = ../refined-set-2016/1ex8/1ex8_pocket.pdb
REMARK  257 active torsions:
REMARK  status: ('A' for Active; 'I' for Inactive)
REMARK    1  A    between atoms: _1  and  _3
REMARK    2  A    between atoms: _3  and  _4
REMARK    3  A    between atoms: _3  and  _6
REMARK    4  A    between atoms: _6  and  _7
REMARK    5  A    between atoms: _12  and  _13
REMARK    6  A    between atoms: _15  and  _17
REMARK    7  A    between atoms: _17  and  _18
REMARK    8  A    between atoms: _17  and  _20
REMARK    9  A    between atoms: _20  and  _21
REMARK   10  A    between atoms: _24  and  _26
REMARK   11  A    between atoms: _26  and  _27
REMARK   12  A    between atoms: _30  and  _32
REMARK   13  A    between atoms: _32  and  _33
REMARK   14  A    between atoms: _32  and  _35
REMARK   15  A    between atoms: _35  and  _36
REMARK   16  A    between atoms: _39  and  _41
REMARK   17  A    between atoms: _41  and  _42
REMARK   18  A    between atoms: _44  and  _46
REMARK   19  A    between atoms: _46  and  _47
REMARK   20  A    between atoms: _46  and  _49
REMARK   21  A    between atoms: _49  and  _50
REMARK   22  A    between atoms: _52  and  _54
REMARK   23  A    between atoms: _54  and  _55
REMARK   24  A    between atoms: _54  and  _57
REMARK   25  A    between atoms: _57  and  _58
REMARK   26  A    between atoms: _63  and  _65
REMARK   27  A    between atoms: _65  and  _66
REMARK   28  A    between atoms: _65  and  _68
REMARK   29  A    between atoms: _68  and  _69
REMARK   30  A    between atoms: _74  and  _75
REMARK   31  A    between atoms: _77  and  _79
REMARK   32  A    between atoms: _79  and  _80
REMARK   33  A    between atoms: _79  and  _82
REMARK   34  A    between atoms: _82  and  _83
REMARK   35  A    between atoms: _83  and  _84
REMARK   36  A    between atoms: _84  and  _85
REMARK   37  A    between atoms: _94  and  _96
REMARK   38  A    between atoms: _96  and  _97
REMARK   39  A    between atoms: _96  and  _99
REMARK   40  A    between atoms: _99  and  _100
REMARK   41  A    between atoms: _104  and  _105
REMARK   42  A    between atoms: _111  and  _112
REMARK   43  A    between atoms: _117  and  _119
REMARK   44  A    between atoms: _119  and  _120
REMARK   45  A    between atoms: _119  and  _122
REMARK   46  A    between atoms: _122  and  _123
REMARK   47  A    between atoms: _126  and  _128
REMARK   48  A    between atoms: _128  and  _129
REMARK   49  A    between atoms: _132  and  _133
REMARK   50  A    between atoms: _138  and  _140
REMARK   51  A    between atoms: _140  and  _141
REMARK   52  A    between atoms: _140  and  _143
REMARK   53  A    between atoms: _143  and  _144
REMARK   54  A    between atoms: _144  and  _145
REMARK   55  A    between atoms: _150  and  _152
REMARK   56  A    between atoms: _152  and  _153
REMARK   57  A    between atoms: _152  and  _155
REMARK   58  A    between atoms: _155  and  _156
REMARK   59  A    between atoms: _156  and  _157
REMARK   60  A    between atoms: _163  and  _164
REMARK   61  A    between atoms: _169  and  _171
REMARK   62  A    between atoms: _171  and  _172
REMARK   63  A    between atoms: _171  and  _174
REMARK   64  A    between atoms: _174  and  _175
REMARK   65  A    between atoms: _178  and  _180
REMARK   66  A    between atoms: _180  and  _181
REMARK   67  A    between atoms: _180  and  _183
REMARK   68  A    between atoms: _183  and  _184
REMARK   69  A    between atoms: _189  and  _190
REMARK   70  A    between atoms: _192  and  _194
REMARK   71  A    between atoms: _194  and  _195
REMARK   72  A    between atoms: _194  and  _197
REMARK   73  A    between atoms: _197  and  _198
REMARK   74  A    between atoms: _201  and  _203
REMARK   75  A    between atoms: _203  and  _204
REMARK   76  A    between atoms: _203  and  _206
REMARK   77  A    between atoms: _206  and  _207
REMARK   78  A    between atoms: _212  and  _214
REMARK   79  A    between atoms: _214  and  _215
REMARK   80  A    between atoms: _218  and  _220
REMARK   81  A    between atoms: _220  and  _221
REMARK   82  A    between atoms: _220  and  _223
REMARK   83  A    between atoms: _223  and  _224
REMARK   84  A    between atoms: _224  and  _225
REMARK   85  A    between atoms: _228  and  _230
REMARK   86  A    between atoms: _230  and  _231
REMARK   87  A    between atoms: _230  and  _233
REMARK   88  A    between atoms: _233  and  _234
REMARK   89  A    between atoms: _237  and  _239
REMARK   90  A    between atoms: _239  and  _240
REMARK   91  A    between atoms: _239  and  _242
REMARK   92  A    between atoms: _242  and  _243
REMARK   93  A    between atoms: _246  and  _248
REMARK   94  A    between atoms: _248  and  _249
REMARK   95  A    between atoms: _248  and  _251
REMARK   96  A    between atoms: _251  and  _252
REMARK   97  A    between atoms: _252  and  _253
REMARK   98  A    between atoms: _258  and  _260
REMARK   99  A    between atoms: _260  and  _261
REMARK  100  A    between atoms: _260  and  _263
REMARK  101  A    between atoms: _263  and  _264
REMARK  102  A    between atoms: _264  and  _265
REMARK  103  A    between atoms: _268  and  _270
REMARK  104  A    between atoms: _270  and  _271
REMARK  105  A    between atoms: _270  and  _273
REMARK  106  A    between atoms: _273  and  _274
REMARK  107  A    between atoms: _274  and  _275
REMARK  108  A    between atoms: _275  and  _276
REMARK  109  A    between atoms: _285  and  _287
REMARK  110  A    between atoms: _287  and  _288
REMARK  111  A    between atoms: _287  and  _290
REMARK  112  A    between atoms: _293  and  _295
REMARK  113  A    between atoms: _295  and  _296
REMARK  114  A    between atoms: _295  and  _298
REMARK  115  A    between atoms: _298  and  _299
REMARK  116  A    between atoms: _299  and  _300
REMARK  117  A    between atoms: _300  and  _301
REMARK  118  A    between atoms: _310  and  _312
REMARK  119  A    between atoms: _312  and  _313
REMARK  120  A    between atoms: _312  and  _315
REMARK  121  A    between atoms: _315  and  _316
REMARK  122  A    between atoms: _316  and  _317
REMARK  123  A    between atoms: _317  and  _318
REMARK  124  A    between atoms: _318  and  _319
REMARK  125  A    between atoms: _323  and  _325
REMARK  126  A    between atoms: _325  and  _326
REMARK  127  A    between atoms: _329  and  _331
REMARK  128  A    between atoms: _331  and  _332
REMARK  129  A    between atoms: _331  and  _334
REMARK  130  A    between atoms: _334  and  _335
REMARK  131  A    between atoms: _335  and  _336
REMARK  132  A    between atoms: _339  and  _341
REMARK  133  A    between atoms: _341  and  _342
REMARK  134  A    between atoms: _341  and  _344
REMARK  135  A    between atoms: _344  and  _345
REMARK  136  A    between atoms: _345  and  _346
REMARK  137  A    between atoms: _346  and  _347
REMARK  138  A    between atoms: _356  and  _358
REMARK  139  A    between atoms: _358  and  _359
REMARK  140  A    between atoms: _358  and  _361
REMARK  141  A    between atoms: _361  and  _362
REMARK  142  A    between atoms: _372  and  _374
REMARK  143  A    between atoms: _374  and  _375
REMARK  144  A    between atoms: _378  and  _379
REMARK  145  A    between atoms: _384  and  _386
REMARK  146  A    between atoms: _386  and  _387
REMARK  147  A    between atoms: _386  and  _389
REMARK  148  A    between atoms: _389  and  _390
REMARK  149  A    between atoms: _390  and  _391
REMARK  150  A    between atoms: _391  and  _392
REMARK  151  A    between atoms: _401  and  _403
REMARK  152  A    between atoms: _403  and  _404
REMARK  153  A    between atoms: _403  and  _406
REMARK  154  A    between atoms: _406  and  _407
REMARK  155  A    between atoms: _410  and  _412
REMARK  156  A    between atoms: _412  and  _413
REMARK  157  A    between atoms: _412  and  _415
REMARK  158  A    between atoms: _415  and  _416
REMARK  159  A    between atoms: _419  and  _421
REMARK  160  A    between atoms: _421  and  _422
REMARK  161  A    between atoms: _421  and  _424
REMARK  162  A    between atoms: _424  and  _425
REMARK  163  A    between atoms: _428  and  _430
REMARK  164  A    between atoms: _430  and  _431
REMARK  165  A    between atoms: _430  and  _433
REMARK  166  A    between atoms: _433  and  _434
REMARK  167  A    between atoms: _437  and  _439
REMARK  168  A    between atoms: _439  and  _440
REMARK  169  A    between atoms: _439  and  _442
REMARK  170  A    between atoms: _442  and  _443
REMARK  171  A    between atoms: _446  and  _448
REMARK  172  A    between atoms: _448  and  _449
REMARK  173  A    between atoms: _448  and  _451
REMARK  174  A    between atoms: _451  and  _452
REMARK  175  A    between atoms: _452  and  _453
REMARK  176  A    between atoms: _455  and  _457
REMARK  177  A    between atoms: _457  and  _458
REMARK  178  A    between atoms: _457  and  _460
REMARK  179  A    between atoms: _460  and  _461
REMARK  180  A    between atoms: _464  and  _466
REMARK  181  A    between atoms: _466  and  _467
REMARK  182  A    between atoms: _466  and  _469
REMARK  183  A    between atoms: _469  and  _470
REMARK  184  A    between atoms: _476  and  _478
REMARK  185  A    between atoms: _478  and  _479
REMARK  186  A    between atoms: _478  and  _481
REMARK  187  A    between atoms: _481  and  _482
REMARK  188  A    between atoms: _485  and  _487
REMARK  189  A    between atoms: _487  and  _488
REMARK  190  A    between atoms: _487  and  _490
REMARK  191  A    between atoms: _490  and  _491
REMARK  192  A    between atoms: _496  and  _498
REMARK  193  A    between atoms: _498  and  _499
REMARK  194  A    between atoms: _498  and  _501
REMARK  195  A    between atoms: _501  and  _502
REMARK  196  A    between atoms: _505  and  _507
REMARK  197  A    between atoms: _507  and  _508
REMARK  198  A    between atoms: _507  and  _510
REMARK  199  A    between atoms: _510  and  _511
REMARK  200  A    between atoms: _511  and  _512
REMARK  201  A    between atoms: _515  and  _517
REMARK  202  A    between atoms: _517  and  _518
REMARK  203  A    between atoms: _517  and  _520
REMARK  204  A    between atoms: _520  and  _521
REMARK  205  A    between atoms: _521  and  _522
REMARK  206  A    between atoms: _522  and  _523
REMARK  207  A    between atoms: _532  and  _534
REMARK  208  A    between atoms: _534  and  _535
REMARK  209  A    between atoms: _534  and  _537
REMARK  210  A    between atoms: _537  and  _538
REMARK  211  A    between atoms: _541  and  _543
REMARK  212  A    between atoms: _543  and  _544
REMARK  213  A    between atoms: _543  and  _546
REMARK  214  A    between atoms: _546  and  _547
REMARK  215  A    between atoms: _550  and  _552
REMARK  216  A    between atoms: _552  and  _553
REMARK  217  A    between atoms: _552  and  _555
REMARK  218  A    between atoms: _559  and  _560
REMARK  219  A    between atoms: _565  and  _567
REMARK  220  A    between atoms: _567  and  _568
REMARK  221  A    between atoms: _567  and  _570
REMARK  222  A    between atoms: _570  and  _571
REMARK  223  A    between atoms: _576  and  _578
REMARK  224  A    between atoms: _578  and  _579
REMARK  225  A    between atoms: _578  and  _581
REMARK  226  A    between atoms: _581  and  _582
REMARK  227  A    between atoms: _587  and  _588
REMARK  228  A    between atoms: _590  and  _592
REMARK  229  A    between atoms: _592  and  _593
REMARK  230  A    between atoms: _592  and  _595
REMARK  231  A    between atoms: _595  and  _596
REMARK  232  A    between atoms: _599  and  _601
REMARK  233  A    between atoms: _601  and  _602
REMARK  234  A    between atoms: _601  and  _604
REMARK  235  A    between atoms: _604  and  _605
REMARK  236  A    between atoms: _605  and  _606
REMARK  237  A    between atoms: _608  and  _610
REMARK  238  A    between atoms: _610  and  _611
REMARK  239  A    between atoms: _610  and  _613
REMARK  240  A    between atoms: _613  and  _614
REMARK  241  A    between atoms: _614  and  _615
REMARK  242  A    between atoms: _615  and  _616
REMARK  243  A    between atoms: _625  and  _627
REMARK  244  A    between atoms: _627  and  _628
REMARK  245  A    between atoms: _630  and  _632
REMARK  246  A    between atoms: _632  and  _633
REMARK  247  A    between atoms: _632  and  _635
REMARK  248  A    between atoms: _635  and  _636
REMARK  249  A    between atoms: _642  and  _644
REMARK  250  A    between atoms: _644  and  _645
REMARK  251  A    between atoms: _644  and  _647
REMARK  252  A    between atoms: _647  and  _648
REMARK  253  A    between atoms: _648  and  _649
REMARK  254  A    between atoms: _651  and  _653
REMARK  255  A    between atoms: _653  and  _654
REMARK  256  A    between atoms: _653  and  _656
REMARK  257  A    between atoms: _656  and  _657
REMARK                            x       y       z     vdW  Elec       q    Type
REMARK                         _______ _______ _______ _____ _____    ______ ____
ROOT
ATOM      1  O   HOH     1      -2.155  20.473  22.009  0.00  0.00    +0.000 OA
ENDROOT
TORSDOF 0
REMARK  Name = ../refined-set-2016/1ex8/1ex8_pocket.pdb
REMARK  257 active torsions:
REMARK  status: ('A' for Active; 'I' for Inactive)
REMARK    1  A    between atoms: _1  and  _3
REMARK    2  A    between atoms: _3  and  _4
REMARK    3  A    between atoms: _3  and  _6
REMARK    4  A    between atoms: _6  and  _7
REMARK    5  A    between atoms: _12  and  _13
REMARK    6  A    between atoms: _15  and  _17
REMARK    7  A    between atoms: _17  and  _18
REMARK    8  A    between atoms: _17  and  _20
REMARK    9  A    between atoms: _20  and  _21
REMARK   10  A    between atoms: _24  and  _26
REMARK   11  A    between atoms: _26  and  _27
REMARK   12  A    between atoms: _30  and  _32
REMARK   13  A    between atoms: _32  and  _33
REMARK   14  A    between atoms: _32  and  _35
REMARK   15  A    between atoms: _35  and  _36
REMARK   16  A    between atoms: _39  and  _41
REMARK   17  A    between atoms: _41  and  _42
REMARK   18  A    between atoms: _44  and  _46
REMARK   19  A    between atoms: _46  and  _47
REMARK   20  A    between atoms: _46  and  _49
REMARK   21  A    between atoms: _49  and  _50
REMARK   22  A    between atoms: _52  and  _54
REMARK   23  A    between atoms: _54  and  _55
REMARK   24  A    between atoms: _54  and  _57
REMARK   25  A    between atoms: _57  and  _58
REMARK   26  A    between atoms: _63  and  _65
REMARK   27  A    between atoms: _65  and  _66
REMARK   28  A    between atoms: _65  and  _68
REMARK   29  A    between atoms: _68  and  _69
REMARK   30  A    between atoms: _74  and  _75
REMARK   31  A    between atoms: _77  and  _79
REMARK   32  A    between atoms: _79  and  _80
REMARK   33  A    between atoms: _79  and  _82
REMARK   34  A    between atoms: _82  and  _83
REMARK   35  A    between atoms: _83  and  _84
REMARK   36  A    between atoms: _84  and  _85
REMARK   37  A    between atoms: _94  and  _96
REMARK   38  A    between atoms: _96  and  _97
REMARK   39  A    between atoms: _96  and  _99
REMARK   40  A    between atoms: _99  and  _100
REMARK   41  A    between atoms: _104  and  _105
REMARK   42  A    between atoms: _111  and  _112
REMARK   43  A    between atoms: _117  and  _119
REMARK   44  A    between atoms: _119  and  _120
REMARK   45  A    between atoms: _119  and  _122
REMARK   46  A    between atoms: _122  and  _123
REMARK   47  A    between atoms: _126  and  _128
REMARK   48  A    between atoms: _128  and  _129
REMARK   49  A    between atoms: _132  and  _133
REMARK   50  A    between atoms: _138  and  _140
REMARK   51  A    between atoms: _140  and  _141
REMARK   52  A    between atoms: _140  and  _143
REMARK   53  A    between atoms: _143  and  _144
REMARK   54  A    between atoms: _144  and  _145
REMARK   55  A    between atoms: _150  and  _152
REMARK   56  A    between atoms: _152  and  _153
REMARK   57  A    between atoms: _152  and  _155
REMARK   58  A    between atoms: _155  and  _156
REMARK   59  A    between atoms: _156  and  _157
REMARK   60  A    between atoms: _163  and  _164
REMARK   61  A    between atoms: _169  and  _171
REMARK   62  A    between atoms: _171  and  _172
REMARK   63  A    between atoms: _171  and  _174
REMARK   64  A    between atoms: _174  and  _175
REMARK   65  A    between atoms: _178  and  _180
REMARK   66  A    between atoms: _180  and  _181
REMARK   67  A    between atoms: _180  and  _183
REMARK   68  A    between atoms: _183  and  _184
REMARK   69  A    between atoms: _189  and  _190
REMARK   70  A    between atoms: _192  and  _194
REMARK   71  A    between atoms: _194  and  _195
REMARK   72  A    between atoms: _194  and  _197
REMARK   73  A    between atoms: _197  and  _198
REMARK   74  A    between atoms: _201  and  _203
REMARK   75  A    between atoms: _203  and  _204
REMARK   76  A    between atoms: _203  and  _206
REMARK   77  A    between atoms: _206  and  _207
REMARK   78  A    between atoms: _212  and  _214
REMARK   79  A    between atoms: _214  and  _215
REMARK   80  A    between atoms: _218  and  _220
REMARK   81  A    between atoms: _220  and  _221
REMARK   82  A    between atoms: _220  and  _223
REMARK   83  A    between atoms: _223  and  _224
REMARK   84  A    between atoms: _224  and  _225
REMARK   85  A    between atoms: _228  and  _230
REMARK   86  A    between atoms: _230  and  _231
REMARK   87  A    between atoms: _230  and  _233
REMARK   88  A    between atoms: _233  and  _234
REMARK   89  A    between atoms: _237  and  _239
REMARK   90  A    between atoms: _239  and  _240
REMARK   91  A    between atoms: _239  and  _242
REMARK   92  A    between atoms: _242  and  _243
REMARK   93  A    between atoms: _246  and  _248
REMARK   94  A    between atoms: _248  and  _249
REMARK   95  A    between atoms: _248  and  _251
REMARK   96  A    between atoms: _251  and  _252
REMARK   97  A    between atoms: _252  and  _253
REMARK   98  A    between atoms: _258  and  _260
REMARK   99  A    between atoms: _260  and  _261
REMARK  100  A    between atoms: _260  and  _263
REMARK  101  A    between atoms: _263  and  _264
REMARK  102  A    between atoms: _264  and  _265
REMARK  103  A    between atoms: _268  and  _270
REMARK  104  A    between atoms: _270  and  _271
REMARK  105  A    between atoms: _270  and  _273
REMARK  106  A    between atoms: _273  and  _274
REMARK  107  A    between atoms: _274  and  _275
REMARK  108  A    between atoms: _275  and  _276
REMARK  109  A    between atoms: _285  and  _287
REMARK  110  A    between atoms: _287  and  _288
REMARK  111  A    between atoms: _287  and  _290
REMARK  112  A    between atoms: _293  and  _295
REMARK  113  A    between atoms: _295  and  _296
REMARK  114  A    between atoms: _295  and  _298
REMARK  115  A    between atoms: _298  and  _299
REMARK  116  A    between atoms: _299  and  _300
REMARK  117  A    between atoms: _300  and  _301
REMARK  118  A    between atoms: _310  and  _312
REMARK  119  A    between atoms: _312  and  _313
REMARK  120  A    between atoms: _312  and  _315
REMARK  121  A    between atoms: _315  and  _316
REMARK  122  A    between atoms: _316  and  _317
REMARK  123  A    between atoms: _317  and  _318
REMARK  124  A    between atoms: _318  and  _319
REMARK  125  A    between atoms: _323  and  _325
REMARK  126  A    between atoms: _325  and  _326
REMARK  127  A    between atoms: _329  and  _331
REMARK  128  A    between atoms: _331  and  _332
REMARK  129  A    between atoms: _331  and  _334
REMARK  130  A    between atoms: _334  and  _335
REMARK  131  A    between atoms: _335  and  _336
REMARK  132  A    between atoms: _339  and  _341
REMARK  133  A    between atoms: _341  and  _342
REMARK  134  A    between atoms: _341  and  _344
REMARK  135  A    between atoms: _344  and  _345
REMARK  136  A    between atoms: _345  and  _346
REMARK  137  A    between atoms: _346  and  _347
REMARK  138  A    between atoms: _356  and  _358
REMARK  139  A    between atoms: _358  and  _359
REMARK  140  A    between atoms: _358  and  _361
REMARK  141  A    between atoms: _361  and  _362
REMARK  142  A    between atoms: _372  and  _374
REMARK  143  A    between atoms: _374  and  _375
REMARK  144  A    between atoms: _378  and  _379
REMARK  145  A    between atoms: _384  and  _386
REMARK  146  A    between atoms: _386  and  _387
REMARK  147  A    between atoms: _386  and  _389
REMARK  148  A    between atoms: _389  and  _390
REMARK  149  A    between atoms: _390  and  _391
REMARK  150  A    between atoms: _391  and  _392
REMARK  151  A    between atoms: _401  and  _403
REMARK  152  A    between atoms: _403  and  _404
REMARK  153  A    between atoms: _403  and  _406
REMARK  154  A    between atoms: _406  and  _407
REMARK  155  A    between atoms: _410  and  _412
REMARK  156  A    between atoms: _412  and  _413
REMARK  157  A    between atoms: _412  and  _415
REMARK  158  A    between atoms: _415  and  _416
REMARK  159  A    between atoms: _419  and  _421
REMARK  160  A    between atoms: _421  and  _422
REMARK  161  A    between atoms: _421  and  _424
REMARK  162  A    between atoms: _424  and  _425
REMARK  163  A    between atoms: _428  and  _430
REMARK  164  A    between atoms: _430  and  _431
REMARK  165  A    between atoms: _430  and  _433
REMARK  166  A    between atoms: _433  and  _434
REMARK  167  A    between atoms: _437  and  _439
REMARK  168  A    between atoms: _439  and  _440
REMARK  169  A    between atoms: _439  and  _442
REMARK  170  A    between atoms: _442  and  _443
REMARK  171  A    between atoms: _446  and  _448
REMARK  172  A    between atoms: _448  and  _449
REMARK  173  A    between atoms: _448  and  _451
REMARK  174  A    between atoms: _451  and  _452
REMARK  175  A    between atoms: _452  and  _453
REMARK  176  A    between atoms: _455  and  _457
REMARK  177  A    between atoms: _457  and  _458
REMARK  178  A    between atoms: _457  and  _460
REMARK  179  A    between atoms: _460  and  _461
REMARK  180  A    between atoms: _464  and  _466
REMARK  181  A    between atoms: _466  and  _467
REMARK  182  A    between atoms: _466  and  _469
REMARK  183  A    between atoms: _469  and  _470
REMARK  184  A    between atoms: _476  and  _478
REMARK  185  A    between atoms: _478  and  _479
REMARK  186  A    between atoms: _478  and  _481
REMARK  187  A    between atoms: _481  and  _482
REMARK  188  A    between atoms: _485  and  _487
REMARK  189  A    between atoms: _487  and  _488
REMARK  190  A    between atoms: _487  and  _490
REMARK  191  A    between atoms: _490  and  _491
REMARK  192  A    between atoms: _496  and  _498
REMARK  193  A    between atoms: _498  and  _499
REMARK  194  A    between atoms: _498  and  _501
REMARK  195  A    between atoms: _501  and  _502
REMARK  196  A    between atoms: _505  and  _507
REMARK  197  A    between atoms: _507  and  _508
REMARK  198  A    between atoms: _507  and  _510
REMARK  199  A    between atoms: _510  and  _511
REMARK  200  A    between atoms: _511  and  _512
REMARK  201  A    between atoms: _515  and  _517
REMARK  202  A    between atoms: _517  and  _518
REMARK  203  A    between atoms: _517  and  _520
REMARK  204  A    between atoms: _520  and  _521
REMARK  205  A    between atoms: _521  and  _522
REMARK  206  A    between atoms: _522  and  _523
REMARK  207  A    between atoms: _532  and  _534
REMARK  208  A    between atoms: _534  and  _535
REMARK  209  A    between atoms: _534  and  _537
REMARK  210  A    between atoms: _537  and  _538
REMARK  211  A    between atoms: _541  and  _543
REMARK  212  A    between atoms: _543  and  _544
REMARK  213  A    between atoms: _543  and  _546
REMARK  214  A    between atoms: _546  and  _547
REMARK  215  A    between atoms: _550  and  _552
REMARK  216  A    between atoms: _552  and  _553
REMARK  217  A    between atoms: _552  and  _555
REMARK  218  A    between atoms: _559  and  _560
REMARK  219  A    between atoms: _565  and  _567
REMARK  220  A    between atoms: _567  and  _568
REMARK  221  A    between atoms: _567  and  _570
REMARK  222  A    between atoms: _570  and  _571
REMARK  223  A    between atoms: _576  and  _578
REMARK  224  A    between atoms: _578  and  _579
REMARK  225  A    between atoms: _578  and  _581
REMARK  226  A    between atoms: _581  and  _582
REMARK  227  A    between atoms: _587  and  _588
REMARK  228  A    between atoms: _590  and  _592
REMARK  229  A    between atoms: _592  and  _593
REMARK  230  A    between atoms: _592  and  _595
REMARK  231  A    between atoms: _595  and  _596
REMARK  232  A    between atoms: _599  and  _601
REMARK  233  A    between atoms: _601  and  _602
REMARK  234  A    between atoms: _601  and  _604
REMARK  235  A    between atoms: _604  and  _605
REMARK  236  A    between atoms: _605  and  _606
REMARK  237  A    between atoms: _608  and  _610
REMARK  238  A    between atoms: _610  and  _611
REMARK  239  A    between atoms: _610  and  _613
REMARK  240  A    between atoms: _613  and  _614
REMARK  241  A    between atoms: _614  and  _615
REMARK  242  A    between atoms: _615  and  _616
REMARK  243  A    between atoms: _625  and  _627
REMARK  244  A    between atoms: _627  and  _628
REMARK  245  A    between atoms: _630  and  _632
REMARK  246  A    between atoms: _632  and  _633
REMARK  247  A    between atoms: _632  and  _635
REMARK  248  A    between atoms: _635  and  _636
REMARK  249  A    between atoms: _642  and  _644
REMARK  250  A    between atoms: _644  and  _645
REMARK  251  A    between atoms: _644  and  _647
REMARK  252  A    between atoms: _647  and  _648
REMARK  253  A    between atoms: _648  and  _649
REMARK  254  A    between atoms: _651  and  _653
REMARK  255  A    between atoms: _653  and  _654
REMARK  256  A    between atoms: _653  and  _656
REMARK  257  A    between atoms: _656  and  _657
REMARK                            x       y       z     vdW  Elec       q    Type
REMARK                         _______ _______ _______ _____ _____    ______ ____
ROOT
ATOM      1  O   HOH     1      -3.630  19.752  19.763  0.00  0.00    +0.000 OA
ENDROOT
TORSDOF 0
REMARK  Name = ../refined-set-2016/1ex8/1ex8_pocket.pdb
REMARK  257 active torsions:
REMARK  status: ('A' for Active; 'I' for Inactive)
REMARK    1  A    between atoms: _1  and  _3
REMARK    2  A    between atoms: _3  and  _4
REMARK    3  A    between atoms: _3  and  _6
REMARK    4  A    between atoms: _6  and  _7
REMARK    5  A    between atoms: _12  and  _13
REMARK    6  A    between atoms: _15  and  _17
REMARK    7  A    between atoms: _17  and  _18
REMARK    8  A    between atoms: _17  and  _20
REMARK    9  A    between atoms: _20  and  _21
REMARK   10  A    between atoms: _24  and  _26
REMARK   11  A    between atoms: _26  and  _27
REMARK   12  A    between atoms: _30  and  _32
REMARK   13  A    between atoms: _32  and  _33
REMARK   14  A    between atoms: _32  and  _35
REMARK   15  A    between atoms: _35  and  _36
REMARK   16  A    between atoms: _39  and  _41
REMARK   17  A    between atoms: _41  and  _42
REMARK   18  A    between atoms: _44  and  _46
REMARK   19  A    between atoms: _46  and  _47
REMARK   20  A    between atoms: _46  and  _49
REMARK   21  A    between atoms: _49  and  _50
REMARK   22  A    between atoms: _52  and  _54
REMARK   23  A    between atoms: _54  and  _55
REMARK   24  A    between atoms: _54  and  _57
REMARK   25  A    between atoms: _57  and  _58
REMARK   26  A    between atoms: _63  and  _65
REMARK   27  A    between atoms: _65  and  _66
REMARK   28  A    between atoms: _65  and  _68
REMARK   29  A    between atoms: _68  and  _69
REMARK   30  A    between atoms: _74  and  _75
REMARK   31  A    between atoms: _77  and  _79
REMARK   32  A    between atoms: _79  and  _80
REMARK   33  A    between atoms: _79  and  _82
REMARK   34  A    between atoms: _82  and  _83
REMARK   35  A    between atoms: _83  and  _84
REMARK   36  A    between atoms: _84  and  _85
REMARK   37  A    between atoms: _94  and  _96
REMARK   38  A    between atoms: _96  and  _97
REMARK   39  A    between atoms: _96  and  _99
REMARK   40  A    between atoms: _99  and  _100
REMARK   41  A    between atoms: _104  and  _105
REMARK   42  A    between atoms: _111  and  _112
REMARK   43  A    between atoms: _117  and  _119
REMARK   44  A    between atoms: _119  and  _120
REMARK   45  A    between atoms: _119  and  _122
REMARK   46  A    between atoms: _122  and  _123
REMARK   47  A    between atoms: _126  and  _128
REMARK   48  A    between atoms: _128  and  _129
REMARK   49  A    between atoms: _132  and  _133
REMARK   50  A    between atoms: _138  and  _140
REMARK   51  A    between atoms: _140  and  _141
REMARK   52  A    between atoms: _140  and  _143
REMARK   53  A    between atoms: _143  and  _144
REMARK   54  A    between atoms: _144  and  _145
REMARK   55  A    between atoms: _150  and  _152
REMARK   56  A    between atoms: _152  and  _153
REMARK   57  A    between atoms: _152  and  _155
REMARK   58  A    between atoms: _155  and  _156
REMARK   59  A    between atoms: _156  and  _157
REMARK   60  A    between atoms: _163  and  _164
REMARK   61  A    between atoms: _169  and  _171
REMARK   62  A    between atoms: _171  and  _172
REMARK   63  A    between atoms: _171  and  _174
REMARK   64  A    between atoms: _174  and  _175
REMARK   65  A    between atoms: _178  and  _180
REMARK   66  A    between atoms: _180  and  _181
REMARK   67  A    between atoms: _180  and  _183
REMARK   68  A    between atoms: _183  and  _184
REMARK   69  A    between atoms: _189  and  _190
REMARK   70  A    between atoms: _192  and  _194
REMARK   71  A    between atoms: _194  and  _195
REMARK   72  A    between atoms: _194  and  _197
REMARK   73  A    between atoms: _197  and  _198
REMARK   74  A    between atoms: _201  and  _203
REMARK   75  A    between atoms: _203  and  _204
REMARK   76  A    between atoms: _203  and  _206
REMARK   77  A    between atoms: _206  and  _207
REMARK   78  A    between atoms: _212  and  _214
REMARK   79  A    between atoms: _214  and  _215
REMARK   80  A    between atoms: _218  and  _220
REMARK   81  A    between atoms: _220  and  _221
REMARK   82  A    between atoms: _220  and  _223
REMARK   83  A    between atoms: _223  and  _224
REMARK   84  A    between atoms: _224  and  _225
REMARK   85  A    between atoms: _228  and  _230
REMARK   86  A    between atoms: _230  and  _231
REMARK   87  A    between atoms: _230  and  _233
REMARK   88  A    between atoms: _233  and  _234
REMARK   89  A    between atoms: _237  and  _239
REMARK   90  A    between atoms: _239  and  _240
REMARK   91  A    between atoms: _239  and  _242
REMARK   92  A    between atoms: _242  and  _243
REMARK   93  A    between atoms: _246  and  _248
REMARK   94  A    between atoms: _248  and  _249
REMARK   95  A    between atoms: _248  and  _251
REMARK   96  A    between atoms: _251  and  _252
REMARK   97  A    between atoms: _252  and  _253
REMARK   98  A    between atoms: _258  and  _260
REMARK   99  A    between atoms: _260  and  _261
REMARK  100  A    between atoms: _260  and  _263
REMARK  101  A    between atoms: _263  and  _264
REMARK  102  A    between atoms: _264  and  _265
REMARK  103  A    between atoms: _268  and  _270
REMARK  104  A    between atoms: _270  and  _271
REMARK  105  A    between atoms: _270  and  _273
REMARK  106  A    between atoms: _273  and  _274
REMARK  107  A    between atoms: _274  and  _275
REMARK  108  A    between atoms: _275  and  _276
REMARK  109  A    between atoms: _285  and  _287
REMARK  110  A    between atoms: _287  and  _288
REMARK  111  A    between atoms: _287  and  _290
REMARK  112  A    between atoms: _293  and  _295
REMARK  113  A    between atoms: _295  and  _296
REMARK  114  A    between atoms: _295  and  _298
REMARK  115  A    between atoms: _298  and  _299
REMARK  116  A    between atoms: _299  and  _300
REMARK  117  A    between atoms: _300  and  _301
REMARK  118  A    between atoms: _310  and  _312
REMARK  119  A    between atoms: _312  and  _313
REMARK  120  A    between atoms: _312  and  _315
REMARK  121  A    between atoms: _315  and  _316
REMARK  122  A    between atoms: _316  and  _317
REMARK  123  A    between atoms: _317  and  _318
REMARK  124  A    between atoms: _318  and  _319
REMARK  125  A    between atoms: _323  and  _325
REMARK  126  A    between atoms: _325  and  _326
REMARK  127  A    between atoms: _329  and  _331
REMARK  128  A    between atoms: _331  and  _332
REMARK  129  A    between atoms: _331  and  _334
REMARK  130  A    between atoms: _334  and  _335
REMARK  131  A    between atoms: _335  and  _336
REMARK  132  A    between atoms: _339  and  _341
REMARK  133  A    between atoms: _341  and  _342
REMARK  134  A    between atoms: _341  and  _344
REMARK  135  A    between atoms: _344  and  _345
REMARK  136  A    between atoms: _345  and  _346
REMARK  137  A    between atoms: _346  and  _347
REMARK  138  A    between atoms: _356  and  _358
REMARK  139  A    between atoms: _358  and  _359
REMARK  140  A    between atoms: _358  and  _361
REMARK  141  A    between atoms: _361  and  _362
REMARK  142  A    between atoms: _372  and  _374
REMARK  143  A    between atoms: _374  and  _375
REMARK  144  A    between atoms: _378  and  _379
REMARK  145  A    between atoms: _384  and  _386
REMARK  146  A    between atoms: _386  and  _387
REMARK  147  A    between atoms: _386  and  _389
REMARK  148  A    between atoms: _389  and  _390
REMARK  149  A    between atoms: _390  and  _391
REMARK  150  A    between atoms: _391  and  _392
REMARK  151  A    between atoms: _401  and  _403
REMARK  152  A    between atoms: _403  and  _404
REMARK  153  A    between atoms: _403  and  _406
REMARK  154  A    between atoms: _406  and  _407
REMARK  155  A    between atoms: _410  and  _412
REMARK  156  A    between atoms: _412  and  _413
REMARK  157  A    between atoms: _412  and  _415
REMARK  158  A    between atoms: _415  and  _416
REMARK  159  A    between atoms: _419  and  _421
REMARK  160  A    between atoms: _421  and  _422
REMARK  161  A    between atoms: _421  and  _424
REMARK  162  A    between atoms: _424  and  _425
REMARK  163  A    between atoms: _428  and  _430
REMARK  164  A    between atoms: _430  and  _431
REMARK  165  A    between atoms: _430  and  _433
REMARK  166  A    between atoms: _433  and  _434
REMARK  167  A    between atoms: _437  and  _439
REMARK  168  A    between atoms: _439  and  _440
REMARK  169  A    between atoms: _439  and  _442
REMARK  170  A    between atoms: _442  and  _443
REMARK  171  A    between atoms: _446  and  _448
REMARK  172  A    between atoms: _448  and  _449
REMARK  173  A    between atoms: _448  and  _451
REMARK  174  A    between atoms: _451  and  _452
REMARK  175  A    between atoms: _452  and  _453
REMARK  176  A    between atoms: _455  and  _457
REMARK  177  A    between atoms: _457  and  _458
REMARK  178  A    between atoms: _457  and  _460
REMARK  179  A    between atoms: _460  and  _461
REMARK  180  A    between atoms: _464  and  _466
REMARK  181  A    between atoms: _466  and  _467
REMARK  182  A    between atoms: _466  and  _469
REMARK  183  A    between atoms: _469  and  _470
REMARK  184  A    between atoms: _476  and  _478
REMARK  185  A    between atoms: _478  and  _479
REMARK  186  A    between atoms: _478  and  _481
REMARK  187  A    between atoms: _481  and  _482
REMARK  188  A    between atoms: _485  and  _487
REMARK  189  A    between atoms: _487  and  _488
REMARK  190  A    between atoms: _487  and  _490
REMARK  191  A    between atoms: _490  and  _491
REMARK  192  A    between atoms: _496  and  _498
REMARK  193  A    between atoms: _498  and  _499
REMARK  194  A    between atoms: _498  and  _501
REMARK  195  A    between atoms: _501  and  _502
REMARK  196  A    between atoms: _505  and  _507
REMARK  197  A    between atoms: _507  and  _508
REMARK  198  A    between atoms: _507  and  _510
REMARK  199  A    between atoms: _510  and  _511
REMARK  200  A    between atoms: _511  and  _512
REMARK  201  A    between atoms: _515  and  _517
REMARK  202  A    between atoms: _517  and  _518
REMARK  203  A    between atoms: _517  and  _520
REMARK  204  A    between atoms: _520  and  _521
REMARK  205  A    between atoms: _521  and  _522
REMARK  206  A    between atoms: _522  and  _523
REMARK  207  A    between atoms: _532  and  _534
REMARK  208  A    between atoms: _534  and  _535
REMARK  209  A    between atoms: _534  and  _537
REMARK  210  A    between atoms: _537  and  _538
REMARK  211  A    between atoms: _541  and  _543
REMARK  212  A    between atoms: _543  and  _544
REMARK  213  A    between atoms: _543  and  _546
REMARK  214  A    between atoms: _546  and  _547
REMARK  215  A    between atoms: _550  and  _552
REMARK  216  A    between atoms: _552  and  _553
REMARK  217  A    between atoms: _552  and  _555
REMARK  218  A    between atoms: _559  and  _560
REMARK  219  A    between atoms: _565  and  _567
REMARK  220  A    between atoms: _567  and  _568
REMARK  221  A    between atoms: _567  and  _570
REMARK  222  A    between atoms: _570  and  _571
REMARK  223  A    between atoms: _576  and  _578
REMARK  224  A    between atoms: _578  and  _579
REMARK  225  A    between atoms: _578  and  _581
REMARK  226  A    between atoms: _581  and  _582
REMARK  227  A    between atoms: _587  and  _588
REMARK  228  A    between atoms: _590  and  _592
REMARK  229  A    between atoms: _592  and  _593
REMARK  230  A    between atoms: _592  and  _595
REMARK  231  A    between atoms: _595  and  _596
REMARK  232  A    between atoms: _599  and  _601
REMARK  233  A    between atoms: _601  and  _602
REMARK  234  A    between atoms: _601  and  _604
REMARK  235  A    between atoms: _604  and  _605
REMARK  236  A    between atoms: _605  and  _606
REMARK  237  A    between atoms: _608  and  _610
REMARK  238  A    between atoms: _610  and  _611
REMARK  239  A    between atoms: _610  and  _613
REMARK  240  A    between atoms: _613  and  _614
REMARK  241  A    between atoms: _614  and  _615
REMARK  242  A    between atoms: _615  and  _616
REMARK  243  A    between atoms: _625  and  _627
REMARK  244  A    between atoms: _627  and  _628
REMARK  245  A    between atoms: _630  and  _632
REMARK  246  A    between atoms: _632  and  _633
REMARK  247  A    between atoms: _632  and  _635
REMARK  248  A    between atoms: _635  and  _636
REMARK  249  A    between atoms: _642  and  _644
REMARK  250  A    between atoms: _644  and  _645
REMARK  251  A    between atoms: _644  and  _647
REMARK  252  A    between atoms: _647  and  _648
REMARK  253  A    between atoms: _648  and  _649
REMARK  254  A    between atoms: _651  and  _653
REMARK  255  A    between atoms: _653  and  _654
REMARK  256  A    between atoms: _653  and  _656
REMARK  257  A    between atoms: _656  and  _657
REMARK                            x       y       z     vdW  Elec       q    Type
REMARK                         _______ _______ _______ _____ _____    ______ ____
ROOT
ATOM      1  O   HOH     1       0.683  25.792  22.458  0.00  0.00    +0.000 OA
ENDROOT
TORSDOF 0
REMARK  Name = ../refined-set-2016/1ex8/1ex8_pocket.pdb
REMARK  257 active torsions:
REMARK  status: ('A' for Active; 'I' for Inactive)
REMARK    1  A    between atoms: _1  and  _3
REMARK    2  A    between atoms: _3  and  _4
REMARK    3  A    between atoms: _3  and  _6
REMARK    4  A    between atoms: _6  and  _7
REMARK    5  A    between atoms: _12  and  _13
REMARK    6  A    between atoms: _15  and  _17
REMARK    7  A    between atoms: _17  and  _18
REMARK    8  A    between atoms: _17  and  _20
REMARK    9  A    between atoms: _20  and  _21
REMARK   10  A    between atoms: _24  and  _26
REMARK   11  A    between atoms: _26  and  _27
REMARK   12  A    between atoms: _30  and  _32
REMARK   13  A    between atoms: _32  and  _33
REMARK   14  A    between atoms: _32  and  _35
REMARK   15  A    between atoms: _35  and  _36
REMARK   16  A    between atoms: _39  and  _41
REMARK   17  A    between atoms: _41  and  _42
REMARK   18  A    between atoms: _44  and  _46
REMARK   19  A    between atoms: _46  and  _47
REMARK   20  A    between atoms: _46  and  _49
REMARK   21  A    between atoms: _49  and  _50
REMARK   22  A    between atoms: _52  and  _54
REMARK   23  A    between atoms: _54  and  _55
REMARK   24  A    between atoms: _54  and  _57
REMARK   25  A    between atoms: _57  and  _58
REMARK   26  A    between atoms: _63  and  _65
REMARK   27  A    between atoms: _65  and  _66
REMARK   28  A    between atoms: _65  and  _68
REMARK   29  A    between atoms: _68  and  _69
REMARK   30  A    between atoms: _74  and  _75
REMARK   31  A    between atoms: _77  and  _79
REMARK   32  A    between atoms: _79  and  _80
REMARK   33  A    between atoms: _79  and  _82
REMARK   34  A    between atoms: _82  and  _83
REMARK   35  A    between atoms: _83  and  _84
REMARK   36  A    between atoms: _84  and  _85
REMARK   37  A    between atoms: _94  and  _96
REMARK   38  A    between atoms: _96  and  _97
REMARK   39  A    between atoms: _96  and  _99
REMARK   40  A    between atoms: _99  and  _100
REMARK   41  A    between atoms: _104  and  _105
REMARK   42  A    between atoms: _111  and  _112
REMARK   43  A    between atoms: _117  and  _119
REMARK   44  A    between atoms: _119  and  _120
REMARK   45  A    between atoms: _119  and  _122
REMARK   46  A    between atoms: _122  and  _123
REMARK   47  A    between atoms: _126  and  _128
REMARK   48  A    between atoms: _128  and  _129
REMARK   49  A    between atoms: _132  and  _133
REMARK   50  A    between atoms: _138  and  _140
REMARK   51  A    between atoms: _140  and  _141
REMARK   52  A    between atoms: _140  and  _143
REMARK   53  A    between atoms: _143  and  _144
REMARK   54  A    between atoms: _144  and  _145
REMARK   55  A    between atoms: _150  and  _152
REMARK   56  A    between atoms: _152  and  _153
REMARK   57  A    between atoms: _152  and  _155
REMARK   58  A    between atoms: _155  and  _156
REMARK   59  A    between atoms: _156  and  _157
REMARK   60  A    between atoms: _163  and  _164
REMARK   61  A    between atoms: _169  and  _171
REMARK   62  A    between atoms: _171  and  _172
REMARK   63  A    between atoms: _171  and  _174
REMARK   64  A    between atoms: _174  and  _175
REMARK   65  A    between atoms: _178  and  _180
REMARK   66  A    between atoms: _180  and  _181
REMARK   67  A    between atoms: _180  and  _183
REMARK   68  A    between atoms: _183  and  _184
REMARK   69  A    between atoms: _189  and  _190
REMARK   70  A    between atoms: _192  and  _194
REMARK   71  A    between atoms: _194  and  _195
REMARK   72  A    between atoms: _194  and  _197
REMARK   73  A    between atoms: _197  and  _198
REMARK   74  A    between atoms: _201  and  _203
REMARK   75  A    between atoms: _203  and  _204
REMARK   76  A    between atoms: _203  and  _206
REMARK   77  A    between atoms: _206  and  _207
REMARK   78  A    between atoms: _212  and  _214
REMARK   79  A    between atoms: _214  and  _215
REMARK   80  A    between atoms: _218  and  _220
REMARK   81  A    between atoms: _220  and  _221
REMARK   82  A    between atoms: _220  and  _223
REMARK   83  A    between atoms: _223  and  _224
REMARK   84  A    between atoms: _224  and  _225
REMARK   85  A    between atoms: _228  and  _230
REMARK   86  A    between atoms: _230  and  _231
REMARK   87  A    between atoms: _230  and  _233
REMARK   88  A    between atoms: _233  and  _234
REMARK   89  A    between atoms: _237  and  _239
REMARK   90  A    between atoms: _239  and  _240
REMARK   91  A    between atoms: _239  and  _242
REMARK   92  A    between atoms: _242  and  _243
REMARK   93  A    between atoms: _246  and  _248
REMARK   94  A    between atoms: _248  and  _249
REMARK   95  A    between atoms: _248  and  _251
REMARK   96  A    between atoms: _251  and  _252
REMARK   97  A    between atoms: _252  and  _253
REMARK   98  A    between atoms: _258  and  _260
REMARK   99  A    between atoms: _260  and  _261
REMARK  100  A    between atoms: _260  and  _263
REMARK  101  A    between atoms: _263  and  _264
REMARK  102  A    between atoms: _264  and  _265
REMARK  103  A    between atoms: _268  and  _270
REMARK  104  A    between atoms: _270  and  _271
REMARK  105  A    between atoms: _270  and  _273
REMARK  106  A    between atoms: _273  and  _274
REMARK  107  A    between atoms: _274  and  _275
REMARK  108  A    between atoms: _275  and  _276
REMARK  109  A    between atoms: _285  and  _287
REMARK  110  A    between atoms: _287  and  _288
REMARK  111  A    between atoms: _287  and  _290
REMARK  112  A    between atoms: _293  and  _295
REMARK  113  A    between atoms: _295  and  _296
REMARK  114  A    between atoms: _295  and  _298
REMARK  115  A    between atoms: _298  and  _299
REMARK  116  A    between atoms: _299  and  _300
REMARK  117  A    between atoms: _300  and  _301
REMARK  118  A    between atoms: _310  and  _312
REMARK  119  A    between atoms: _312  and  _313
REMARK  120  A    between atoms: _312  and  _315
REMARK  121  A    between atoms: _315  and  _316
REMARK  122  A    between atoms: _316  and  _317
REMARK  123  A    between atoms: _317  and  _318
REMARK  124  A    between atoms: _318  and  _319
REMARK  125  A    between atoms: _323  and  _325
REMARK  126  A    between atoms: _325  and  _326
REMARK  127  A    between atoms: _329  and  _331
REMARK  128  A    between atoms: _331  and  _332
REMARK  129  A    between atoms: _331  and  _334
REMARK  130  A    between atoms: _334  and  _335
REMARK  131  A    between atoms: _335  and  _336
REMARK  132  A    between atoms: _339  and  _341
REMARK  133  A    between atoms: _341  and  _342
REMARK  134  A    between atoms: _341  and  _344
REMARK  135  A    between atoms: _344  and  _345
REMARK  136  A    between atoms: _345  and  _346
REMARK  137  A    between atoms: _346  and  _347
REMARK  138  A    between atoms: _356  and  _358
REMARK  139  A    between atoms: _358  and  _359
REMARK  140  A    between atoms: _358  and  _361
REMARK  141  A    between atoms: _361  and  _362
REMARK  142  A    between atoms: _372  and  _374
REMARK  143  A    between atoms: _374  and  _375
REMARK  144  A    between atoms: _378  and  _379
REMARK  145  A    between atoms: _384  and  _386
REMARK  146  A    between atoms: _386  and  _387
REMARK  147  A    between atoms: _386  and  _389
REMARK  148  A    between atoms: _389  and  _390
REMARK  149  A    between atoms: _390  and  _391
REMARK  150  A    between atoms: _391  and  _392
REMARK  151  A    between atoms: _401  and  _403
REMARK  152  A    between atoms: _403  and  _404
REMARK  153  A    between atoms: _403  and  _406
REMARK  154  A    between atoms: _406  and  _407
REMARK  155  A    between atoms: _410  and  _412
REMARK  156  A    between atoms: _412  and  _413
REMARK  157  A    between atoms: _412  and  _415
REMARK  158  A    between atoms: _415  and  _416
REMARK  159  A    between atoms: _419  and  _421
REMARK  160  A    between atoms: _421  and  _422
REMARK  161  A    between atoms: _421  and  _424
REMARK  162  A    between atoms: _424  and  _425
REMARK  163  A    between atoms: _428  and  _430
REMARK  164  A    between atoms: _430  and  _431
REMARK  165  A    between atoms: _430  and  _433
REMARK  166  A    between atoms: _433  and  _434
REMARK  167  A    between atoms: _437  and  _439
REMARK  168  A    between atoms: _439  and  _440
REMARK  169  A    between atoms: _439  and  _442
REMARK  170  A    between atoms: _442  and  _443
REMARK  171  A    between atoms: _446  and  _448
REMARK  172  A    between atoms: _448  and  _449
REMARK  173  A    between atoms: _448  and  _451
REMARK  174  A    between atoms: _451  and  _452
REMARK  175  A    between atoms: _452  and  _453
REMARK  176  A    between atoms: _455  and  _457
REMARK  177  A    between atoms: _457  and  _458
REMARK  178  A    between atoms: _457  and  _460
REMARK  179  A    between atoms: _460  and  _461
REMARK  180  A    between atoms: _464  and  _466
REMARK  181  A    between atoms: _466  and  _467
REMARK  182  A    between atoms: _466  and  _469
REMARK  183  A    between atoms: _469  and  _470
REMARK  184  A    between atoms: _476  and  _478
REMARK  185  A    between atoms: _478  and  _479
REMARK  186  A    between atoms: _478  and  _481
REMARK  187  A    between atoms: _481  and  _482
REMARK  188  A    between atoms: _485  and  _487
REMARK  189  A    between atoms: _487  and  _488
REMARK  190  A    between atoms: _487  and  _490
REMARK  191  A    between atoms: _490  and  _491
REMARK  192  A    between atoms: _496  and  _498
REMARK  193  A    between atoms: _498  and  _499
REMARK  194  A    between atoms: _498  and  _501
REMARK  195  A    between atoms: _501  and  _502
REMARK  196  A    between atoms: _505  and  _507
REMARK  197  A    between atoms: _507  and  _508
REMARK  198  A    between atoms: _507  and  _510
REMARK  199  A    between atoms: _510  and  _511
REMARK  200  A    between atoms: _511  and  _512
REMARK  201  A    between atoms: _515  and  _517
REMARK  202  A    between atoms: _517  and  _518
REMARK  203  A    between atoms: _517  and  _520
REMARK  204  A    between atoms: _520  and  _521
REMARK  205  A    between atoms: _521  and  _522
REMARK  206  A    between atoms: _522  and  _523
REMARK  207  A    between atoms: _532  and  _534
REMARK  208  A    between atoms: _534  and  _535
REMARK  209  A    between atoms: _534  and  _537
REMARK  210  A    between atoms: _537  and  _538
REMARK  211  A    between atoms: _541  and  _543
REMARK  212  A    between atoms: _543  and  _544
REMARK  213  A    between atoms: _543  and  _546
REMARK  214  A    between atoms: _546  and  _547
REMARK  215  A    between atoms: _550  and  _552
REMARK  216  A    between atoms: _552  and  _553
REMARK  217  A    between atoms: _552  and  _555
REMARK  218  A    between atoms: _559  and  _560
REMARK  219  A    between atoms: _565  and  _567
REMARK  220  A    between atoms: _567  and  _568
REMARK  221  A    between atoms: _567  and  _570
REMARK  222  A    between atoms: _570  and  _571
REMARK  223  A    between atoms: _576  and  _578
REMARK  224  A    between atoms: _578  and  _579
REMARK  225  A    between atoms: _578  and  _581
REMARK  226  A    between atoms: _581  and  _582
REMARK  227  A    between atoms: _587  and  _588
REMARK  228  A    between atoms: _590  and  _592
REMARK  229  A    between atoms: _592  and  _593
REMARK  230  A    between atoms: _592  and  _595
REMARK  231  A    between atoms: _595  and  _596
REMARK  232  A    between atoms: _599  and  _601
REMARK  233  A    between atoms: _601  and  _602
REMARK  234  A    between atoms: _601  and  _604
REMARK  235  A    between atoms: _604  and  _605
REMARK  236  A    between atoms: _605  and  _606
REMARK  237  A    between atoms: _608  and  _610
REMARK  238  A    between atoms: _610  and  _611
REMARK  239  A    between atoms: _610  and  _613
REMARK  240  A    between atoms: _613  and  _614
REMARK  241  A    between atoms: _614  and  _615
REMARK  242  A    between atoms: _615  and  _616
REMARK  243  A    between atoms: _625  and  _627
REMARK  244  A    between atoms: _627  and  _628
REMARK  245  A    between atoms: _630  and  _632
REMARK  246  A    between atoms: _632  and  _633
REMARK  247  A    between atoms: _632  and  _635
REMARK  248  A    between atoms: _635  and  _636
REMARK  249  A    between atoms: _642  and  _644
REMARK  250  A    between atoms: _644  and  _645
REMARK  251  A    between atoms: _644  and  _647
REMARK  252  A    between atoms: _647  and  _648
REMARK  253  A    between atoms: _648  and  _649
REMARK  254  A    between atoms: _651  and  _653
REMARK  255  A    between atoms: _653  and  _654
REMARK  256  A    between atoms: _653  and  _656
REMARK  257  A    between atoms: _656  and  _657
REMARK                            x       y       z     vdW  Elec       q    Type
REMARK                         _______ _______ _______ _____ _____    ______ ____
ROOT
ATOM      1  O   HOH     1       0.838  13.392  27.360  0.00  0.00    +0.000 OA
ENDROOT
TORSDOF 0
REMARK  Name = ../refined-set-2016/1ex8/1ex8_pocket.pdb
REMARK  257 active torsions:
REMARK  status: ('A' for Active; 'I' for Inactive)
REMARK    1  A    between atoms: _1  and  _3
REMARK    2  A    between atoms: _3  and  _4
REMARK    3  A    between atoms: _3  and  _6
REMARK    4  A    between atoms: _6  and  _7
REMARK    5  A    between atoms: _12  and  _13
REMARK    6  A    between atoms: _15  and  _17
REMARK    7  A    between atoms: _17  and  _18
REMARK    8  A    between atoms: _17  and  _20
REMARK    9  A    between atoms: _20  and  _21
REMARK   10  A    between atoms: _24  and  _26
REMARK   11  A    between atoms: _26  and  _27
REMARK   12  A    between atoms: _30  and  _32
REMARK   13  A    between atoms: _32  and  _33
REMARK   14  A    between atoms: _32  and  _35
REMARK   15  A    between atoms: _35  and  _36
REMARK   16  A    between atoms: _39  and  _41
REMARK   17  A    between atoms: _41  and  _42
REMARK   18  A    between atoms: _44  and  _46
REMARK   19  A    between atoms: _46  and  _47
REMARK   20  A    between atoms: _46  and  _49
REMARK   21  A    between atoms: _49  and  _50
REMARK   22  A    between atoms: _52  and  _54
REMARK   23  A    between atoms: _54  and  _55
REMARK   24  A    between atoms: _54  and  _57
REMARK   25  A    between atoms: _57  and  _58
REMARK   26  A    between atoms: _63  and  _65
REMARK   27  A    between atoms: _65  and  _66
REMARK   28  A    between atoms: _65  and  _68
REMARK   29  A    between atoms: _68  and  _69
REMARK   30  A    between atoms: _74  and  _75
REMARK   31  A    between atoms: _77  and  _79
REMARK   32  A    between atoms: _79  and  _80
REMARK   33  A    between atoms: _79  and  _82
REMARK   34  A    between atoms: _82  and  _83
REMARK   35  A    between atoms: _83  and  _84
REMARK   36  A    between atoms: _84  and  _85
REMARK   37  A    between atoms: _94  and  _96
REMARK   38  A    between atoms: _96  and  _97
REMARK   39  A    between atoms: _96  and  _99
REMARK   40  A    between atoms: _99  and  _100
REMARK   41  A    between atoms: _104  and  _105
REMARK   42  A    between atoms: _111  and  _112
REMARK   43  A    between atoms: _117  and  _119
REMARK   44  A    between atoms: _119  and  _120
REMARK   45  A    between atoms: _119  and  _122
REMARK   46  A    between atoms: _122  and  _123
REMARK   47  A    between atoms: _126  and  _128
REMARK   48  A    between atoms: _128  and  _129
REMARK   49  A    between atoms: _132  and  _133
REMARK   50  A    between atoms: _138  and  _140
REMARK   51  A    between atoms: _140  and  _141
REMARK   52  A    between atoms: _140  and  _143
REMARK   53  A    between atoms: _143  and  _144
REMARK   54  A    between atoms: _144  and  _145
REMARK   55  A    between atoms: _150  and  _152
REMARK   56  A    between atoms: _152  and  _153
REMARK   57  A    between atoms: _152  and  _155
REMARK   58  A    between atoms: _155  and  _156
REMARK   59  A    between atoms: _156  and  _157
REMARK   60  A    between atoms: _163  and  _164
REMARK   61  A    between atoms: _169  and  _171
REMARK   62  A    between atoms: _171  and  _172
REMARK   63  A    between atoms: _171  and  _174
REMARK   64  A    between atoms: _174  and  _175
REMARK   65  A    between atoms: _178  and  _180
REMARK   66  A    between atoms: _180  and  _181
REMARK   67  A    between atoms: _180  and  _183
REMARK   68  A    between atoms: _183  and  _184
REMARK   69  A    between atoms: _189  and  _190
REMARK   70  A    between atoms: _192  and  _194
REMARK   71  A    between atoms: _194  and  _195
REMARK   72  A    between atoms: _194  and  _197
REMARK   73  A    between atoms: _197  and  _198
REMARK   74  A    between atoms: _201  and  _203
REMARK   75  A    between atoms: _203  and  _204
REMARK   76  A    between atoms: _203  and  _206
REMARK   77  A    between atoms: _206  and  _207
REMARK   78  A    between atoms: _212  and  _214
REMARK   79  A    between atoms: _214  and  _215
REMARK   80  A    between atoms: _218  and  _220
REMARK   81  A    between atoms: _220  and  _221
REMARK   82  A    between atoms: _220  and  _223
REMARK   83  A    between atoms: _223  and  _224
REMARK   84  A    between atoms: _224  and  _225
REMARK   85  A    between atoms: _228  and  _230
REMARK   86  A    between atoms: _230  and  _231
REMARK   87  A    between atoms: _230  and  _233
REMARK   88  A    between atoms: _233  and  _234
REMARK   89  A    between atoms: _237  and  _239
REMARK   90  A    between atoms: _239  and  _240
REMARK   91  A    between atoms: _239  and  _242
REMARK   92  A    between atoms: _242  and  _243
REMARK   93  A    between atoms: _246  and  _248
REMARK   94  A    between atoms: _248  and  _249
REMARK   95  A    between atoms: _248  and  _251
REMARK   96  A    between atoms: _251  and  _252
REMARK   97  A    between atoms: _252  and  _253
REMARK   98  A    between atoms: _258  and  _260
REMARK   99  A    between atoms: _260  and  _261
REMARK  100  A    between atoms: _260  and  _263
REMARK  101  A    between atoms: _263  and  _264
REMARK  102  A    between atoms: _264  and  _265
REMARK  103  A    between atoms: _268  and  _270
REMARK  104  A    between atoms: _270  and  _271
REMARK  105  A    between atoms: _270  and  _273
REMARK  106  A    between atoms: _273  and  _274
REMARK  107  A    between atoms: _274  and  _275
REMARK  108  A    between atoms: _275  and  _276
REMARK  109  A    between atoms: _285  and  _287
REMARK  110  A    between atoms: _287  and  _288
REMARK  111  A    between atoms: _287  and  _290
REMARK  112  A    between atoms: _293  and  _295
REMARK  113  A    between atoms: _295  and  _296
REMARK  114  A    between atoms: _295  and  _298
REMARK  115  A    between atoms: _298  and  _299
REMARK  116  A    between atoms: _299  and  _300
REMARK  117  A    between atoms: _300  and  _301
REMARK  118  A    between atoms: _310  and  _312
REMARK  119  A    between atoms: _312  and  _313
REMARK  120  A    between atoms: _312  and  _315
REMARK  121  A    between atoms: _315  and  _316
REMARK  122  A    between atoms: _316  and  _317
REMARK  123  A    between atoms: _317  and  _318
REMARK  124  A    between atoms: _318  and  _319
REMARK  125  A    between atoms: _323  and  _325
REMARK  126  A    between atoms: _325  and  _326
REMARK  127  A    between atoms: _329  and  _331
REMARK  128  A    between atoms: _331  and  _332
REMARK  129  A    between atoms: _331  and  _334
REMARK  130  A    between atoms: _334  and  _335
REMARK  131  A    between atoms: _335  and  _336
REMARK  132  A    between atoms: _339  and  _341
REMARK  133  A    between atoms: _341  and  _342
REMARK  134  A    between atoms: _341  and  _344
REMARK  135  A    between atoms: _344  and  _345
REMARK  136  A    between atoms: _345  and  _346
REMARK  137  A    between atoms: _346  and  _347
REMARK  138  A    between atoms: _356  and  _358
REMARK  139  A    between atoms: _358  and  _359
REMARK  140  A    between atoms: _358  and  _361
REMARK  141  A    between atoms: _361  and  _362
REMARK  142  A    between atoms: _372  and  _374
REMARK  143  A    between atoms: _374  and  _375
REMARK  144  A    between atoms: _378  and  _379
REMARK  145  A    between atoms: _384  and  _386
REMARK  146  A    between atoms: _386  and  _387
REMARK  147  A    between atoms: _386  and  _389
REMARK  148  A    between atoms: _389  and  _390
REMARK  149  A    between atoms: _390  and  _391
REMARK  150  A    between atoms: _391  and  _392
REMARK  151  A    between atoms: _401  and  _403
REMARK  152  A    between atoms: _403  and  _404
REMARK  153  A    between atoms: _403  and  _406
REMARK  154  A    between atoms: _406  and  _407
REMARK  155  A    between atoms: _410  and  _412
REMARK  156  A    between atoms: _412  and  _413
REMARK  157  A    between atoms: _412  and  _415
REMARK  158  A    between atoms: _415  and  _416
REMARK  159  A    between atoms: _419  and  _421
REMARK  160  A    between atoms: _421  and  _422
REMARK  161  A    between atoms: _421  and  _424
REMARK  162  A    between atoms: _424  and  _425
REMARK  163  A    between atoms: _428  and  _430
REMARK  164  A    between atoms: _430  and  _431
REMARK  165  A    between atoms: _430  and  _433
REMARK  166  A    between atoms: _433  and  _434
REMARK  167  A    between atoms: _437  and  _439
REMARK  168  A    between atoms: _439  and  _440
REMARK  169  A    between atoms: _439  and  _442
REMARK  170  A    between atoms: _442  and  _443
REMARK  171  A    between atoms: _446  and  _448
REMARK  172  A    between atoms: _448  and  _449
REMARK  173  A    between atoms: _448  and  _451
REMARK  174  A    between atoms: _451  and  _452
REMARK  175  A    between atoms: _452  and  _453
REMARK  176  A    between atoms: _455  and  _457
REMARK  177  A    between atoms: _457  and  _458
REMARK  178  A    between atoms: _457  and  _460
REMARK  179  A    between atoms: _460  and  _461
REMARK  180  A    between atoms: _464  and  _466
REMARK  181  A    between atoms: _466  and  _467
REMARK  182  A    between atoms: _466  and  _469
REMARK  183  A    between atoms: _469  and  _470
REMARK  184  A    between atoms: _476  and  _478
REMARK  185  A    between atoms: _478  and  _479
REMARK  186  A    between atoms: _478  and  _481
REMARK  187  A    between atoms: _481  and  _482
REMARK  188  A    between atoms: _485  and  _487
REMARK  189  A    between atoms: _487  and  _488
REMARK  190  A    between atoms: _487  and  _490
REMARK  191  A    between atoms: _490  and  _491
REMARK  192  A    between atoms: _496  and  _498
REMARK  193  A    between atoms: _498  and  _499
REMARK  194  A    between atoms: _498  and  _501
REMARK  195  A    between atoms: _501  and  _502
REMARK  196  A    between atoms: _505  and  _507
REMARK  197  A    between atoms: _507  and  _508
REMARK  198  A    between atoms: _507  and  _510
REMARK  199  A    between atoms: _510  and  _511
REMARK  200  A    between atoms: _511  and  _512
REMARK  201  A    between atoms: _515  and  _517
REMARK  202  A    between atoms: _517  and  _518
REMARK  203  A    between atoms: _517  and  _520
REMARK  204  A    between atoms: _520  and  _521
REMARK  205  A    between atoms: _521  and  _522
REMARK  206  A    between atoms: _522  and  _523
REMARK  207  A    between atoms: _532  and  _534
REMARK  208  A    between atoms: _534  and  _535
REMARK  209  A    between atoms: _534  and  _537
REMARK  210  A    between atoms: _537  and  _538
REMARK  211  A    between atoms: _541  and  _543
REMARK  212  A    between atoms: _543  and  _544
REMARK  213  A    between atoms: _543  and  _546
REMARK  214  A    between atoms: _546  and  _547
REMARK  215  A    between atoms: _550  and  _552
REMARK  216  A    between atoms: _552  and  _553
REMARK  217  A    between atoms: _552  and  _555
REMARK  218  A    between atoms: _559  and  _560
REMARK  219  A    between atoms: _565  and  _567
REMARK  220  A    between atoms: _567  and  _568
REMARK  221  A    between atoms: _567  and  _570
REMARK  222  A    between atoms: _570  and  _571
REMARK  223  A    between atoms: _576  and  _578
REMARK  224  A    between atoms: _578  and  _579
REMARK  225  A    between atoms: _578  and  _581
REMARK  226  A    between atoms: _581  and  _582
REMARK  227  A    between atoms: _587  and  _588
REMARK  228  A    between atoms: _590  and  _592
REMARK  229  A    between atoms: _592  and  _593
REMARK  230  A    between atoms: _592  and  _595
REMARK  231  A    between atoms: _595  and  _596
REMARK  232  A    between atoms: _599  and  _601
REMARK  233  A    between atoms: _601  and  _602
REMARK  234  A    between atoms: _601  and  _604
REMARK  235  A    between atoms: _604  and  _605
REMARK  236  A    between atoms: _605  and  _606
REMARK  237  A    between atoms: _608  and  _610
REMARK  238  A    between atoms: _610  and  _611
REMARK  239  A    between atoms: _610  and  _613
REMARK  240  A    between atoms: _613  and  _614
REMARK  241  A    between atoms: _614  and  _615
REMARK  242  A    between atoms: _615  and  _616
REMARK  243  A    between atoms: _625  and  _627
REMARK  244  A    between atoms: _627  and  _628
REMARK  245  A    between atoms: _630  and  _632
REMARK  246  A    between atoms: _632  and  _633
REMARK  247  A    between atoms: _632  and  _635
REMARK  248  A    between atoms: _635  and  _636
REMARK  249  A    between atoms: _642  and  _644
REMARK  250  A    between atoms: _644  and  _645
REMARK  251  A    between atoms: _644  and  _647
REMARK  252  A    between atoms: _647  and  _648
REMARK  253  A    between atoms: _648  and  _649
REMARK  254  A    between atoms: _651  and  _653
REMARK  255  A    between atoms: _653  and  _654
REMARK  256  A    between atoms: _653  and  _656
REMARK  257  A    between atoms: _656  and  _657
REMARK                            x       y       z     vdW  Elec       q    Type
REMARK                         _______ _______ _______ _____ _____    ______ ____
ROOT
ATOM      1  O   HOH     1       6.848  20.744  27.180  0.00  0.00    +0.000 OA
ENDROOT
TORSDOF 0
REMARK  Name = ../refined-set-2016/1ex8/1ex8_pocket.pdb
REMARK  257 active torsions:
REMARK  status: ('A' for Active; 'I' for Inactive)
REMARK    1  A    between atoms: _1  and  _3
REMARK    2  A    between atoms: _3  and  _4
REMARK    3  A    between atoms: _3  and  _6
REMARK    4  A    between atoms: _6  and  _7
REMARK    5  A    between atoms: _12  and  _13
REMARK    6  A    between atoms: _15  and  _17
REMARK    7  A    between atoms: _17  and  _18
REMARK    8  A    between atoms: _17  and  _20
REMARK    9  A    between atoms: _20  and  _21
REMARK   10  A    between atoms: _24  and  _26
REMARK   11  A    between atoms: _26  and  _27
REMARK   12  A    between atoms: _30  and  _32
REMARK   13  A    between atoms: _32  and  _33
REMARK   14  A    between atoms: _32  and  _35
REMARK   15  A    between atoms: _35  and  _36
REMARK   16  A    between atoms: _39  and  _41
REMARK   17  A    between atoms: _41  and  _42
REMARK   18  A    between atoms: _44  and  _46
REMARK   19  A    between atoms: _46  and  _47
REMARK   20  A    between atoms: _46  and  _49
REMARK   21  A    between atoms: _49  and  _50
REMARK   22  A    between atoms: _52  and  _54
REMARK   23  A    between atoms: _54  and  _55
REMARK   24  A    between atoms: _54  and  _57
REMARK   25  A    between atoms: _57  and  _58
REMARK   26  A    between atoms: _63  and  _65
REMARK   27  A    between atoms: _65  and  _66
REMARK   28  A    between atoms: _65  and  _68
REMARK   29  A    between atoms: _68  and  _69
REMARK   30  A    between atoms: _74  and  _75
REMARK   31  A    between atoms: _77  and  _79
REMARK   32  A    between atoms: _79  and  _80
REMARK   33  A    between atoms: _79  and  _82
REMARK   34  A    between atoms: _82  and  _83
REMARK   35  A    between atoms: _83  and  _84
REMARK   36  A    between atoms: _84  and  _85
REMARK   37  A    between atoms: _94  and  _96
REMARK   38  A    between atoms: _96  and  _97
REMARK   39  A    between atoms: _96  and  _99
REMARK   40  A    between atoms: _99  and  _100
REMARK   41  A    between atoms: _104  and  _105
REMARK   42  A    between atoms: _111  and  _112
REMARK   43  A    between atoms: _117  and  _119
REMARK   44  A    between atoms: _119  and  _120
REMARK   45  A    between atoms: _119  and  _122
REMARK   46  A    between atoms: _122  and  _123
REMARK   47  A    between atoms: _126  and  _128
REMARK   48  A    between atoms: _128  and  _129
REMARK   49  A    between atoms: _132  and  _133
REMARK   50  A    between atoms: _138  and  _140
REMARK   51  A    between atoms: _140  and  _141
REMARK   52  A    between atoms: _140  and  _143
REMARK   53  A    between atoms: _143  and  _144
REMARK   54  A    between atoms: _144  and  _145
REMARK   55  A    between atoms: _150  and  _152
REMARK   56  A    between atoms: _152  and  _153
REMARK   57  A    between atoms: _152  and  _155
REMARK   58  A    between atoms: _155  and  _156
REMARK   59  A    between atoms: _156  and  _157
REMARK   60  A    between atoms: _163  and  _164
REMARK   61  A    between atoms: _169  and  _171
REMARK   62  A    between atoms: _171  and  _172
REMARK   63  A    between atoms: _171  and  _174
REMARK   64  A    between atoms: _174  and  _175
REMARK   65  A    between atoms: _178  and  _180
REMARK   66  A    between atoms: _180  and  _181
REMARK   67  A    between atoms: _180  and  _183
REMARK   68  A    between atoms: _183  and  _184
REMARK   69  A    between atoms: _189  and  _190
REMARK   70  A    between atoms: _192  and  _194
REMARK   71  A    between atoms: _194  and  _195
REMARK   72  A    between atoms: _194  and  _197
REMARK   73  A    between atoms: _197  and  _198
REMARK   74  A    between atoms: _201  and  _203
REMARK   75  A    between atoms: _203  and  _204
REMARK   76  A    between atoms: _203  and  _206
REMARK   77  A    between atoms: _206  and  _207
REMARK   78  A    between atoms: _212  and  _214
REMARK   79  A    between atoms: _214  and  _215
REMARK   80  A    between atoms: _218  and  _220
REMARK   81  A    between atoms: _220  and  _221
REMARK   82  A    between atoms: _220  and  _223
REMARK   83  A    between atoms: _223  and  _224
REMARK   84  A    between atoms: _224  and  _225
REMARK   85  A    between atoms: _228  and  _230
REMARK   86  A    between atoms: _230  and  _231
REMARK   87  A    between atoms: _230  and  _233
REMARK   88  A    between atoms: _233  and  _234
REMARK   89  A    between atoms: _237  and  _239
REMARK   90  A    between atoms: _239  and  _240
REMARK   91  A    between atoms: _239  and  _242
REMARK   92  A    between atoms: _242  and  _243
REMARK   93  A    between atoms: _246  and  _248
REMARK   94  A    between atoms: _248  and  _249
REMARK   95  A    between atoms: _248  and  _251
REMARK   96  A    between atoms: _251  and  _252
REMARK   97  A    between atoms: _252  and  _253
REMARK   98  A    between atoms: _258  and  _260
REMARK   99  A    between atoms: _260  and  _261
REMARK  100  A    between atoms: _260  and  _263
REMARK  101  A    between atoms: _263  and  _264
REMARK  102  A    between atoms: _264  and  _265
REMARK  103  A    between atoms: _268  and  _270
REMARK  104  A    between atoms: _270  and  _271
REMARK  105  A    between atoms: _270  and  _273
REMARK  106  A    between atoms: _273  and  _274
REMARK  107  A    between atoms: _274  and  _275
REMARK  108  A    between atoms: _275  and  _276
REMARK  109  A    between atoms: _285  and  _287
REMARK  110  A    between atoms: _287  and  _288
REMARK  111  A    between atoms: _287  and  _290
REMARK  112  A    between atoms: _293  and  _295
REMARK  113  A    between atoms: _295  and  _296
REMARK  114  A    between atoms: _295  and  _298
REMARK  115  A    between atoms: _298  and  _299
REMARK  116  A    between atoms: _299  and  _300
REMARK  117  A    between atoms: _300  and  _301
REMARK  118  A    between atoms: _310  and  _312
REMARK  119  A    between atoms: _312  and  _313
REMARK  120  A    between atoms: _312  and  _315
REMARK  121  A    between atoms: _315  and  _316
REMARK  122  A    between atoms: _316  and  _317
REMARK  123  A    between atoms: _317  and  _318
REMARK  124  A    between atoms: _318  and  _319
REMARK  125  A    between atoms: _323  and  _325
REMARK  126  A    between atoms: _325  and  _326
REMARK  127  A    between atoms: _329  and  _331
REMARK  128  A    between atoms: _331  and  _332
REMARK  129  A    between atoms: _331  and  _334
REMARK  130  A    between atoms: _334  and  _335
REMARK  131  A    between atoms: _335  and  _336
REMARK  132  A    between atoms: _339  and  _341
REMARK  133  A    between atoms: _341  and  _342
REMARK  134  A    between atoms: _341  and  _344
REMARK  135  A    between atoms: _344  and  _345
REMARK  136  A    between atoms: _345  and  _346
REMARK  137  A    between atoms: _346  and  _347
REMARK  138  A    between atoms: _356  and  _358
REMARK  139  A    between atoms: _358  and  _359
REMARK  140  A    between atoms: _358  and  _361
REMARK  141  A    between atoms: _361  and  _362
REMARK  142  A    between atoms: _372  and  _374
REMARK  143  A    between atoms: _374  and  _375
REMARK  144  A    between atoms: _378  and  _379
REMARK  145  A    between atoms: _384  and  _386
REMARK  146  A    between atoms: _386  and  _387
REMARK  147  A    between atoms: _386  and  _389
REMARK  148  A    between atoms: _389  and  _390
REMARK  149  A    between atoms: _390  and  _391
REMARK  150  A    between atoms: _391  and  _392
REMARK  151  A    between atoms: _401  and  _403
REMARK  152  A    between atoms: _403  and  _404
REMARK  153  A    between atoms: _403  and  _406
REMARK  154  A    between atoms: _406  and  _407
REMARK  155  A    between atoms: _410  and  _412
REMARK  156  A    between atoms: _412  and  _413
REMARK  157  A    between atoms: _412  and  _415
REMARK  158  A    between atoms: _415  and  _416
REMARK  159  A    between atoms: _419  and  _421
REMARK  160  A    between atoms: _421  and  _422
REMARK  161  A    between atoms: _421  and  _424
REMARK  162  A    between atoms: _424  and  _425
REMARK  163  A    between atoms: _428  and  _430
REMARK  164  A    between atoms: _430  and  _431
REMARK  165  A    between atoms: _430  and  _433
REMARK  166  A    between atoms: _433  and  _434
REMARK  167  A    between atoms: _437  and  _439
REMARK  168  A    between atoms: _439  and  _440
REMARK  169  A    between atoms: _439  and  _442
REMARK  170  A    between atoms: _442  and  _443
REMARK  171  A    between atoms: _446  and  _448
REMARK  172  A    between atoms: _448  and  _449
REMARK  173  A    between atoms: _448  and  _451
REMARK  174  A    between atoms: _451  and  _452
REMARK  175  A    between atoms: _452  and  _453
REMARK  176  A    between atoms: _455  and  _457
REMARK  177  A    between atoms: _457  and  _458
REMARK  178  A    between atoms: _457  and  _460
REMARK  179  A    between atoms: _460  and  _461
REMARK  180  A    between atoms: _464  and  _466
REMARK  181  A    between atoms: _466  and  _467
REMARK  182  A    between atoms: _466  and  _469
REMARK  183  A    between atoms: _469  and  _470
REMARK  184  A    between atoms: _476  and  _478
REMARK  185  A    between atoms: _478  and  _479
REMARK  186  A    between atoms: _478  and  _481
REMARK  187  A    between atoms: _481  and  _482
REMARK  188  A    between atoms: _485  and  _487
REMARK  189  A    between atoms: _487  and  _488
REMARK  190  A    between atoms: _487  and  _490
REMARK  191  A    between atoms: _490  and  _491
REMARK  192  A    between atoms: _496  and  _498
REMARK  193  A    between atoms: _498  and  _499
REMARK  194  A    between atoms: _498  and  _501
REMARK  195  A    between atoms: _501  and  _502
REMARK  196  A    between atoms: _505  and  _507
REMARK  197  A    between atoms: _507  and  _508
REMARK  198  A    between atoms: _507  and  _510
REMARK  199  A    between atoms: _510  and  _511
REMARK  200  A    between atoms: _511  and  _512
REMARK  201  A    between atoms: _515  and  _517
REMARK  202  A    between atoms: _517  and  _518
REMARK  203  A    between atoms: _517  and  _520
REMARK  204  A    between atoms: _520  and  _521
REMARK  205  A    between atoms: _521  and  _522
REMARK  206  A    between atoms: _522  and  _523
REMARK  207  A    between atoms: _532  and  _534
REMARK  208  A    between atoms: _534  and  _535
REMARK  209  A    between atoms: _534  and  _537
REMARK  210  A    between atoms: _537  and  _538
REMARK  211  A    between atoms: _541  and  _543
REMARK  212  A    between atoms: _543  and  _544
REMARK  213  A    between atoms: _543  and  _546
REMARK  214  A    between atoms: _546  and  _547
REMARK  215  A    between atoms: _550  and  _552
REMARK  216  A    between atoms: _552  and  _553
REMARK  217  A    between atoms: _552  and  _555
REMARK  218  A    between atoms: _559  and  _560
REMARK  219  A    between atoms: _565  and  _567
REMARK  220  A    between atoms: _567  and  _568
REMARK  221  A    between atoms: _567  and  _570
REMARK  222  A    between atoms: _570  and  _571
REMARK  223  A    between atoms: _576  and  _578
REMARK  224  A    between atoms: _578  and  _579
REMARK  225  A    between atoms: _578  and  _581
REMARK  226  A    between atoms: _581  and  _582
REMARK  227  A    between atoms: _587  and  _588
REMARK  228  A    between atoms: _590  and  _592
REMARK  229  A    between atoms: _592  and  _593
REMARK  230  A    between atoms: _592  and  _595
REMARK  231  A    between atoms: _595  and  _596
REMARK  232  A    between atoms: _599  and  _601
REMARK  233  A    between atoms: _601  and  _602
REMARK  234  A    between atoms: _601  and  _604
REMARK  235  A    between atoms: _604  and  _605
REMARK  236  A    between atoms: _605  and  _606
REMARK  237  A    between atoms: _608  and  _610
REMARK  238  A    between atoms: _610  and  _611
REMARK  239  A    between atoms: _610  and  _613
REMARK  240  A    between atoms: _613  and  _614
REMARK  241  A    between atoms: _614  and  _615
REMARK  242  A    between atoms: _615  and  _616
REMARK  243  A    between atoms: _625  and  _627
REMARK  244  A    between atoms: _627  and  _628
REMARK  245  A    between atoms: _630  and  _632
REMARK  246  A    between atoms: _632  and  _633
REMARK  247  A    between atoms: _632  and  _635
REMARK  248  A    between atoms: _635  and  _636
REMARK  249  A    between atoms: _642  and  _644
REMARK  250  A    between atoms: _644  and  _645
REMARK  251  A    between atoms: _644  and  _647
REMARK  252  A    between atoms: _647  and  _648
REMARK  253  A    between atoms: _648  and  _649
REMARK  254  A    between atoms: _651  and  _653
REMARK  255  A    between atoms: _653  and  _654
REMARK  256  A    between atoms: _653  and  _656
REMARK  257  A    between atoms: _656  and  _657
REMARK                            x       y       z     vdW  Elec       q    Type
REMARK                         _______ _______ _______ _____ _____    ______ ____
ROOT
ATOM      1  O   HOH     1      -9.589  19.166  23.227  0.00  0.00    +0.000 OA
ENDROOT
TORSDOF 0
REMARK  Name = ../refined-set-2016/1ex8/1ex8_pocket.pdb
REMARK  257 active torsions:
REMARK  status: ('A' for Active; 'I' for Inactive)
REMARK    1  A    between atoms: _1  and  _3
REMARK    2  A    between atoms: _3  and  _4
REMARK    3  A    between atoms: _3  and  _6
REMARK    4  A    between atoms: _6  and  _7
REMARK    5  A    between atoms: _12  and  _13
REMARK    6  A    between atoms: _15  and  _17
REMARK    7  A    between atoms: _17  and  _18
REMARK    8  A    between atoms: _17  and  _20
REMARK    9  A    between atoms: _20  and  _21
REMARK   10  A    between atoms: _24  and  _26
REMARK   11  A    between atoms: _26  and  _27
REMARK   12  A    between atoms: _30  and  _32
REMARK   13  A    between atoms: _32  and  _33
REMARK   14  A    between atoms: _32  and  _35
REMARK   15  A    between atoms: _35  and  _36
REMARK   16  A    between atoms: _39  and  _41
REMARK   17  A    between atoms: _41  and  _42
REMARK   18  A    between atoms: _44  and  _46
REMARK   19  A    between atoms: _46  and  _47
REMARK   20  A    between atoms: _46  and  _49
REMARK   21  A    between atoms: _49  and  _50
REMARK   22  A    between atoms: _52  and  _54
REMARK   23  A    between atoms: _54  and  _55
REMARK   24  A    between atoms: _54  and  _57
REMARK   25  A    between atoms: _57  and  _58
REMARK   26  A    between atoms: _63  and  _65
REMARK   27  A    between atoms: _65  and  _66
REMARK   28  A    between atoms: _65  and  _68
REMARK   29  A    between atoms: _68  and  _69
REMARK   30  A    between atoms: _74  and  _75
REMARK   31  A    between atoms: _77  and  _79
REMARK   32  A    between atoms: _79  and  _80
REMARK   33  A    between atoms: _79  and  _82
REMARK   34  A    between atoms: _82  and  _83
REMARK   35  A    between atoms: _83  and  _84
REMARK   36  A    between atoms: _84  and  _85
REMARK   37  A    between atoms: _94  and  _96
REMARK   38  A    between atoms: _96  and  _97
REMARK   39  A    between atoms: _96  and  _99
REMARK   40  A    between atoms: _99  and  _100
REMARK   41  A    between atoms: _104  and  _105
REMARK   42  A    between atoms: _111  and  _112
REMARK   43  A    between atoms: _117  and  _119
REMARK   44  A    between atoms: _119  and  _120
REMARK   45  A    between atoms: _119  and  _122
REMARK   46  A    between atoms: _122  and  _123
REMARK   47  A    between atoms: _126  and  _128
REMARK   48  A    between atoms: _128  and  _129
REMARK   49  A    between atoms: _132  and  _133
REMARK   50  A    between atoms: _138  and  _140
REMARK   51  A    between atoms: _140  and  _141
REMARK   52  A    between atoms: _140  and  _143
REMARK   53  A    between atoms: _143  and  _144
REMARK   54  A    between atoms: _144  and  _145
REMARK   55  A    between atoms: _150  and  _152
REMARK   56  A    between atoms: _152  and  _153
REMARK   57  A    between atoms: _152  and  _155
REMARK   58  A    between atoms: _155  and  _156
REMARK   59  A    between atoms: _156  and  _157
REMARK   60  A    between atoms: _163  and  _164
REMARK   61  A    between atoms: _169  and  _171
REMARK   62  A    between atoms: _171  and  _172
REMARK   63  A    between atoms: _171  and  _174
REMARK   64  A    between atoms: _174  and  _175
REMARK   65  A    between atoms: _178  and  _180
REMARK   66  A    between atoms: _180  and  _181
REMARK   67  A    between atoms: _180  and  _183
REMARK   68  A    between atoms: _183  and  _184
REMARK   69  A    between atoms: _189  and  _190
REMARK   70  A    between atoms: _192  and  _194
REMARK   71  A    between atoms: _194  and  _195
REMARK   72  A    between atoms: _194  and  _197
REMARK   73  A    between atoms: _197  and  _198
REMARK   74  A    between atoms: _201  and  _203
REMARK   75  A    between atoms: _203  and  _204
REMARK   76  A    between atoms: _203  and  _206
REMARK   77  A    between atoms: _206  and  _207
REMARK   78  A    between atoms: _212  and  _214
REMARK   79  A    between atoms: _214  and  _215
REMARK   80  A    between atoms: _218  and  _220
REMARK   81  A    between atoms: _220  and  _221
REMARK   82  A    between atoms: _220  and  _223
REMARK   83  A    between atoms: _223  and  _224
REMARK   84  A    between atoms: _224  and  _225
REMARK   85  A    between atoms: _228  and  _230
REMARK   86  A    between atoms: _230  and  _231
REMARK   87  A    between atoms: _230  and  _233
REMARK   88  A    between atoms: _233  and  _234
REMARK   89  A    between atoms: _237  and  _239
REMARK   90  A    between atoms: _239  and  _240
REMARK   91  A    between atoms: _239  and  _242
REMARK   92  A    between atoms: _242  and  _243
REMARK   93  A    between atoms: _246  and  _248
REMARK   94  A    between atoms: _248  and  _249
REMARK   95  A    between atoms: _248  and  _251
REMARK   96  A    between atoms: _251  and  _252
REMARK   97  A    between atoms: _252  and  _253
REMARK   98  A    between atoms: _258  and  _260
REMARK   99  A    between atoms: _260  and  _261
REMARK  100  A    between atoms: _260  and  _263
REMARK  101  A    between atoms: _263  and  _264
REMARK  102  A    between atoms: _264  and  _265
REMARK  103  A    between atoms: _268  and  _270
REMARK  104  A    between atoms: _270  and  _271
REMARK  105  A    between atoms: _270  and  _273
REMARK  106  A    between atoms: _273  and  _274
REMARK  107  A    between atoms: _274  and  _275
REMARK  108  A    between atoms: _275  and  _276
REMARK  109  A    between atoms: _285  and  _287
REMARK  110  A    between atoms: _287  and  _288
REMARK  111  A    between atoms: _287  and  _290
REMARK  112  A    between atoms: _293  and  _295
REMARK  113  A    between atoms: _295  and  _296
REMARK  114  A    between atoms: _295  and  _298
REMARK  115  A    between atoms: _298  and  _299
REMARK  116  A    between atoms: _299  and  _300
REMARK  117  A    between atoms: _300  and  _301
REMARK  118  A    between atoms: _310  and  _312
REMARK  119  A    between atoms: _312  and  _313
REMARK  120  A    between atoms: _312  and  _315
REMARK  121  A    between atoms: _315  and  _316
REMARK  122  A    between atoms: _316  and  _317
REMARK  123  A    between atoms: _317  and  _318
REMARK  124  A    between atoms: _318  and  _319
REMARK  125  A    between atoms: _323  and  _325
REMARK  126  A    between atoms: _325  and  _326
REMARK  127  A    between atoms: _329  and  _331
REMARK  128  A    between atoms: _331  and  _332
REMARK  129  A    between atoms: _331  and  _334
REMARK  130  A    between atoms: _334  and  _335
REMARK  131  A    between atoms: _335  and  _336
REMARK  132  A    between atoms: _339  and  _341
REMARK  133  A    between atoms: _341  and  _342
REMARK  134  A    between atoms: _341  and  _344
REMARK  135  A    between atoms: _344  and  _345
REMARK  136  A    between atoms: _345  and  _346
REMARK  137  A    between atoms: _346  and  _347
REMARK  138  A    between atoms: _356  and  _358
REMARK  139  A    between atoms: _358  and  _359
REMARK  140  A    between atoms: _358  and  _361
REMARK  141  A    between atoms: _361  and  _362
REMARK  142  A    between atoms: _372  and  _374
REMARK  143  A    between atoms: _374  and  _375
REMARK  144  A    between atoms: _378  and  _379
REMARK  145  A    between atoms: _384  and  _386
REMARK  146  A    between atoms: _386  and  _387
REMARK  147  A    between atoms: _386  and  _389
REMARK  148  A    between atoms: _389  and  _390
REMARK  149  A    between atoms: _390  and  _391
REMARK  150  A    between atoms: _391  and  _392
REMARK  151  A    between atoms: _401  and  _403
REMARK  152  A    between atoms: _403  and  _404
REMARK  153  A    between atoms: _403  and  _406
REMARK  154  A    between atoms: _406  and  _407
REMARK  155  A    between atoms: _410  and  _412
REMARK  156  A    between atoms: _412  and  _413
REMARK  157  A    between atoms: _412  and  _415
REMARK  158  A    between atoms: _415  and  _416
REMARK  159  A    between atoms: _419  and  _421
REMARK  160  A    between atoms: _421  and  _422
REMARK  161  A    between atoms: _421  and  _424
REMARK  162  A    between atoms: _424  and  _425
REMARK  163  A    between atoms: _428  and  _430
REMARK  164  A    between atoms: _430  and  _431
REMARK  165  A    between atoms: _430  and  _433
REMARK  166  A    between atoms: _433  and  _434
REMARK  167  A    between atoms: _437  and  _439
REMARK  168  A    between atoms: _439  and  _440
REMARK  169  A    between atoms: _439  and  _442
REMARK  170  A    between atoms: _442  and  _443
REMARK  171  A    between atoms: _446  and  _448
REMARK  172  A    between atoms: _448  and  _449
REMARK  173  A    between atoms: _448  and  _451
REMARK  174  A    between atoms: _451  and  _452
REMARK  175  A    between atoms: _452  and  _453
REMARK  176  A    between atoms: _455  and  _457
REMARK  177  A    between atoms: _457  and  _458
REMARK  178  A    between atoms: _457  and  _460
REMARK  179  A    between atoms: _460  and  _461
REMARK  180  A    between atoms: _464  and  _466
REMARK  181  A    between atoms: _466  and  _467
REMARK  182  A    between atoms: _466  and  _469
REMARK  183  A    between atoms: _469  and  _470
REMARK  184  A    between atoms: _476  and  _478
REMARK  185  A    between atoms: _478  and  _479
REMARK  186  A    between atoms: _478  and  _481
REMARK  187  A    between atoms: _481  and  _482
REMARK  188  A    between atoms: _485  and  _487
REMARK  189  A    between atoms: _487  and  _488
REMARK  190  A    between atoms: _487  and  _490
REMARK  191  A    between atoms: _490  and  _491
REMARK  192  A    between atoms: _496  and  _498
REMARK  193  A    between atoms: _498  and  _499
REMARK  194  A    between atoms: _498  and  _501
REMARK  195  A    between atoms: _501  and  _502
REMARK  196  A    between atoms: _505  and  _507
REMARK  197  A    between atoms: _507  and  _508
REMARK  198  A    between atoms: _507  and  _510
REMARK  199  A    between atoms: _510  and  _511
REMARK  200  A    between atoms: _511  and  _512
REMARK  201  A    between atoms: _515  and  _517
REMARK  202  A    between atoms: _517  and  _518
REMARK  203  A    between atoms: _517  and  _520
REMARK  204  A    between atoms: _520  and  _521
REMARK  205  A    between atoms: _521  and  _522
REMARK  206  A    between atoms: _522  and  _523
REMARK  207  A    between atoms: _532  and  _534
REMARK  208  A    between atoms: _534  and  _535
REMARK  209  A    between atoms: _534  and  _537
REMARK  210  A    between atoms: _537  and  _538
REMARK  211  A    between atoms: _541  and  _543
REMARK  212  A    between atoms: _543  and  _544
REMARK  213  A    between atoms: _543  and  _546
REMARK  214  A    between atoms: _546  and  _547
REMARK  215  A    between atoms: _550  and  _552
REMARK  216  A    between atoms: _552  and  _553
REMARK  217  A    between atoms: _552  and  _555
REMARK  218  A    between atoms: _559  and  _560
REMARK  219  A    between atoms: _565  and  _567
REMARK  220  A    between atoms: _567  and  _568
REMARK  221  A    between atoms: _567  and  _570
REMARK  222  A    between atoms: _570  and  _571
REMARK  223  A    between atoms: _576  and  _578
REMARK  224  A    between atoms: _578  and  _579
REMARK  225  A    between atoms: _578  and  _581
REMARK  226  A    between atoms: _581  and  _582
REMARK  227  A    between atoms: _587  and  _588
REMARK  228  A    between atoms: _590  and  _592
REMARK  229  A    between atoms: _592  and  _593
REMARK  230  A    between atoms: _592  and  _595
REMARK  231  A    between atoms: _595  and  _596
REMARK  232  A    between atoms: _599  and  _601
REMARK  233  A    between atoms: _601  and  _602
REMARK  234  A    between atoms: _601  and  _604
REMARK  235  A    between atoms: _604  and  _605
REMARK  236  A    between atoms: _605  and  _606
REMARK  237  A    between atoms: _608  and  _610
REMARK  238  A    between atoms: _610  and  _611
REMARK  239  A    between atoms: _610  and  _613
REMARK  240  A    between atoms: _613  and  _614
REMARK  241  A    between atoms: _614  and  _615
REMARK  242  A    between atoms: _615  and  _616
REMARK  243  A    between atoms: _625  and  _627
REMARK  244  A    between atoms: _627  and  _628
REMARK  245  A    between atoms: _630  and  _632
REMARK  246  A    between atoms: _632  and  _633
REMARK  247  A    between atoms: _632  and  _635
REMARK  248  A    between atoms: _635  and  _636
REMARK  249  A    between atoms: _642  and  _644
REMARK  250  A    between atoms: _644  and  _645
REMARK  251  A    between atoms: _644  and  _647
REMARK  252  A    between atoms: _647  and  _648
REMARK  253  A    between atoms: _648  and  _649
REMARK  254  A    between atoms: _651  and  _653
REMARK  255  A    between atoms: _653  and  _654
REMARK  256  A    between atoms: _653  and  _656
REMARK  257  A    between atoms: _656  and  _657
REMARK                            x       y       z     vdW  Elec       q    Type
REMARK                         _______ _______ _______ _____ _____    ______ ____
ROOT
ATOM      1  O   HOH     1       9.292  28.031  20.161  0.00  0.00    +0.000 OA
ENDROOT
TORSDOF 0
REMARK  Name = ../refined-set-2016/1ex8/1ex8_pocket.pdb
REMARK  257 active torsions:
REMARK  status: ('A' for Active; 'I' for Inactive)
REMARK    1  A    between atoms: _1  and  _3
REMARK    2  A    between atoms: _3  and  _4
REMARK    3  A    between atoms: _3  and  _6
REMARK    4  A    between atoms: _6  and  _7
REMARK    5  A    between atoms: _12  and  _13
REMARK    6  A    between atoms: _15  and  _17
REMARK    7  A    between atoms: _17  and  _18
REMARK    8  A    between atoms: _17  and  _20
REMARK    9  A    between atoms: _20  and  _21
REMARK   10  A    between atoms: _24  and  _26
REMARK   11  A    between atoms: _26  and  _27
REMARK   12  A    between atoms: _30  and  _32
REMARK   13  A    between atoms: _32  and  _33
REMARK   14  A    between atoms: _32  and  _35
REMARK   15  A    between atoms: _35  and  _36
REMARK   16  A    between atoms: _39  and  _41
REMARK   17  A    between atoms: _41  and  _42
REMARK   18  A    between atoms: _44  and  _46
REMARK   19  A    between atoms: _46  and  _47
REMARK   20  A    between atoms: _46  and  _49
REMARK   21  A    between atoms: _49  and  _50
REMARK   22  A    between atoms: _52  and  _54
REMARK   23  A    between atoms: _54  and  _55
REMARK   24  A    between atoms: _54  and  _57
REMARK   25  A    between atoms: _57  and  _58
REMARK   26  A    between atoms: _63  and  _65
REMARK   27  A    between atoms: _65  and  _66
REMARK   28  A    between atoms: _65  and  _68
REMARK   29  A    between atoms: _68  and  _69
REMARK   30  A    between atoms: _74  and  _75
REMARK   31  A    between atoms: _77  and  _79
REMARK   32  A    between atoms: _79  and  _80
REMARK   33  A    between atoms: _79  and  _82
REMARK   34  A    between atoms: _82  and  _83
REMARK   35  A    between atoms: _83  and  _84
REMARK   36  A    between atoms: _84  and  _85
REMARK   37  A    between atoms: _94  and  _96
REMARK   38  A    between atoms: _96  and  _97
REMARK   39  A    between atoms: _96  and  _99
REMARK   40  A    between atoms: _99  and  _100
REMARK   41  A    between atoms: _104  and  _105
REMARK   42  A    between atoms: _111  and  _112
REMARK   43  A    between atoms: _117  and  _119
REMARK   44  A    between atoms: _119  and  _120
REMARK   45  A    between atoms: _119  and  _122
REMARK   46  A    between atoms: _122  and  _123
REMARK   47  A    between atoms: _126  and  _128
REMARK   48  A    between atoms: _128  and  _129
REMARK   49  A    between atoms: _132  and  _133
REMARK   50  A    between atoms: _138  and  _140
REMARK   51  A    between atoms: _140  and  _141
REMARK   52  A    between atoms: _140  and  _143
REMARK   53  A    between atoms: _143  and  _144
REMARK   54  A    between atoms: _144  and  _145
REMARK   55  A    between atoms: _150  and  _152
REMARK   56  A    between atoms: _152  and  _153
REMARK   57  A    between atoms: _152  and  _155
REMARK   58  A    between atoms: _155  and  _156
REMARK   59  A    between atoms: _156  and  _157
REMARK   60  A    between atoms: _163  and  _164
REMARK   61  A    between atoms: _169  and  _171
REMARK   62  A    between atoms: _171  and  _172
REMARK   63  A    between atoms: _171  and  _174
REMARK   64  A    between atoms: _174  and  _175
REMARK   65  A    between atoms: _178  and  _180
REMARK   66  A    between atoms: _180  and  _181
REMARK   67  A    between atoms: _180  and  _183
REMARK   68  A    between atoms: _183  and  _184
REMARK   69  A    between atoms: _189  and  _190
REMARK   70  A    between atoms: _192  and  _194
REMARK   71  A    between atoms: _194  and  _195
REMARK   72  A    between atoms: _194  and  _197
REMARK   73  A    between atoms: _197  and  _198
REMARK   74  A    between atoms: _201  and  _203
REMARK   75  A    between atoms: _203  and  _204
REMARK   76  A    between atoms: _203  and  _206
REMARK   77  A    between atoms: _206  and  _207
REMARK   78  A    between atoms: _212  and  _214
REMARK   79  A    between atoms: _214  and  _215
REMARK   80  A    between atoms: _218  and  _220
REMARK   81  A    between atoms: _220  and  _221
REMARK   82  A    between atoms: _220  and  _223
REMARK   83  A    between atoms: _223  and  _224
REMARK   84  A    between atoms: _224  and  _225
REMARK   85  A    between atoms: _228  and  _230
REMARK   86  A    between atoms: _230  and  _231
REMARK   87  A    between atoms: _230  and  _233
REMARK   88  A    between atoms: _233  and  _234
REMARK   89  A    between atoms: _237  and  _239
REMARK   90  A    between atoms: _239  and  _240
REMARK   91  A    between atoms: _239  and  _242
REMARK   92  A    between atoms: _242  and  _243
REMARK   93  A    between atoms: _246  and  _248
REMARK   94  A    between atoms: _248  and  _249
REMARK   95  A    between atoms: _248  and  _251
REMARK   96  A    between atoms: _251  and  _252
REMARK   97  A    between atoms: _252  and  _253
REMARK   98  A    between atoms: _258  and  _260
REMARK   99  A    between atoms: _260  and  _261
REMARK  100  A    between atoms: _260  and  _263
REMARK  101  A    between atoms: _263  and  _264
REMARK  102  A    between atoms: _264  and  _265
REMARK  103  A    between atoms: _268  and  _270
REMARK  104  A    between atoms: _270  and  _271
REMARK  105  A    between atoms: _270  and  _273
REMARK  106  A    between atoms: _273  and  _274
REMARK  107  A    between atoms: _274  and  _275
REMARK  108  A    between atoms: _275  and  _276
REMARK  109  A    between atoms: _285  and  _287
REMARK  110  A    between atoms: _287  and  _288
REMARK  111  A    between atoms: _287  and  _290
REMARK  112  A    between atoms: _293  and  _295
REMARK  113  A    between atoms: _295  and  _296
REMARK  114  A    between atoms: _295  and  _298
REMARK  115  A    between atoms: _298  and  _299
REMARK  116  A    between atoms: _299  and  _300
REMARK  117  A    between atoms: _300  and  _301
REMARK  118  A    between atoms: _310  and  _312
REMARK  119  A    between atoms: _312  and  _313
REMARK  120  A    between atoms: _312  and  _315
REMARK  121  A    between atoms: _315  and  _316
REMARK  122  A    between atoms: _316  and  _317
REMARK  123  A    between atoms: _317  and  _318
REMARK  124  A    between atoms: _318  and  _319
REMARK  125  A    between atoms: _323  and  _325
REMARK  126  A    between atoms: _325  and  _326
REMARK  127  A    between atoms: _329  and  _331
REMARK  128  A    between atoms: _331  and  _332
REMARK  129  A    between atoms: _331  and  _334
REMARK  130  A    between atoms: _334  and  _335
REMARK  131  A    between atoms: _335  and  _336
REMARK  132  A    between atoms: _339  and  _341
REMARK  133  A    between atoms: _341  and  _342
REMARK  134  A    between atoms: _341  and  _344
REMARK  135  A    between atoms: _344  and  _345
REMARK  136  A    between atoms: _345  and  _346
REMARK  137  A    between atoms: _346  and  _347
REMARK  138  A    between atoms: _356  and  _358
REMARK  139  A    between atoms: _358  and  _359
REMARK  140  A    between atoms: _358  and  _361
REMARK  141  A    between atoms: _361  and  _362
REMARK  142  A    between atoms: _372  and  _374
REMARK  143  A    between atoms: _374  and  _375
REMARK  144  A    between atoms: _378  and  _379
REMARK  145  A    between atoms: _384  and  _386
REMARK  146  A    between atoms: _386  and  _387
REMARK  147  A    between atoms: _386  and  _389
REMARK  148  A    between atoms: _389  and  _390
REMARK  149  A    between atoms: _390  and  _391
REMARK  150  A    between atoms: _391  and  _392
REMARK  151  A    between atoms: _401  and  _403
REMARK  152  A    between atoms: _403  and  _404
REMARK  153  A    between atoms: _403  and  _406
REMARK  154  A    between atoms: _406  and  _407
REMARK  155  A    between atoms: _410  and  _412
REMARK  156  A    between atoms: _412  and  _413
REMARK  157  A    between atoms: _412  and  _415
REMARK  158  A    between atoms: _415  and  _416
REMARK  159  A    between atoms: _419  and  _421
REMARK  160  A    between atoms: _421  and  _422
REMARK  161  A    between atoms: _421  and  _424
REMARK  162  A    between atoms: _424  and  _425
REMARK  163  A    between atoms: _428  and  _430
REMARK  164  A    between atoms: _430  and  _431
REMARK  165  A    between atoms: _430  and  _433
REMARK  166  A    between atoms: _433  and  _434
REMARK  167  A    between atoms: _437  and  _439
REMARK  168  A    between atoms: _439  and  _440
REMARK  169  A    between atoms: _439  and  _442
REMARK  170  A    between atoms: _442  and  _443
REMARK  171  A    between atoms: _446  and  _448
REMARK  172  A    between atoms: _448  and  _449
REMARK  173  A    between atoms: _448  and  _451
REMARK  174  A    between atoms: _451  and  _452
REMARK  175  A    between atoms: _452  and  _453
REMARK  176  A    between atoms: _455  and  _457
REMARK  177  A    between atoms: _457  and  _458
REMARK  178  A    between atoms: _457  and  _460
REMARK  179  A    between atoms: _460  and  _461
REMARK  180  A    between atoms: _464  and  _466
REMARK  181  A    between atoms: _466  and  _467
REMARK  182  A    between atoms: _466  and  _469
REMARK  183  A    between atoms: _469  and  _470
REMARK  184  A    between atoms: _476  and  _478
REMARK  185  A    between atoms: _478  and  _479
REMARK  186  A    between atoms: _478  and  _481
REMARK  187  A    between atoms: _481  and  _482
REMARK  188  A    between atoms: _485  and  _487
REMARK  189  A    between atoms: _487  and  _488
REMARK  190  A    between atoms: _487  and  _490
REMARK  191  A    between atoms: _490  and  _491
REMARK  192  A    between atoms: _496  and  _498
REMARK  193  A    between atoms: _498  and  _499
REMARK  194  A    between atoms: _498  and  _501
REMARK  195  A    between atoms: _501  and  _502
REMARK  196  A    between atoms: _505  and  _507
REMARK  197  A    between atoms: _507  and  _508
REMARK  198  A    between atoms: _507  and  _510
REMARK  199  A    between atoms: _510  and  _511
REMARK  200  A    between atoms: _511  and  _512
REMARK  201  A    between atoms: _515  and  _517
REMARK  202  A    between atoms: _517  and  _518
REMARK  203  A    between atoms: _517  and  _520
REMARK  204  A    between atoms: _520  and  _521
REMARK  205  A    between atoms: _521  and  _522
REMARK  206  A    between atoms: _522  and  _523
REMARK  207  A    between atoms: _532  and  _534
REMARK  208  A    between atoms: _534  and  _535
REMARK  209  A    between atoms: _534  and  _537
REMARK  210  A    between atoms: _537  and  _538
REMARK  211  A    between atoms: _541  and  _543
REMARK  212  A    between atoms: _543  and  _544
REMARK  213  A    between atoms: _543  and  _546
REMARK  214  A    between atoms: _546  and  _547
REMARK  215  A    between atoms: _550  and  _552
REMARK  216  A    between atoms: _552  and  _553
REMARK  217  A    between atoms: _552  and  _555
REMARK  218  A    between atoms: _559  and  _560
REMARK  219  A    between atoms: _565  and  _567
REMARK  220  A    between atoms: _567  and  _568
REMARK  221  A    between atoms: _567  and  _570
REMARK  222  A    between atoms: _570  and  _571
REMARK  223  A    between atoms: _576  and  _578
REMARK  224  A    between atoms: _578  and  _579
REMARK  225  A    between atoms: _578  and  _581
REMARK  226  A    between atoms: _581  and  _582
REMARK  227  A    between atoms: _587  and  _588
REMARK  228  A    between atoms: _590  and  _592
REMARK  229  A    between atoms: _592  and  _593
REMARK  230  A    between atoms: _592  and  _595
REMARK  231  A    between atoms: _595  and  _596
REMARK  232  A    between atoms: _599  and  _601
REMARK  233  A    between atoms: _601  and  _602
REMARK  234  A    between atoms: _601  and  _604
REMARK  235  A    between atoms: _604  and  _605
REMARK  236  A    between atoms: _605  and  _606
REMARK  237  A    between atoms: _608  and  _610
REMARK  238  A    between atoms: _610  and  _611
REMARK  239  A    between atoms: _610  and  _613
REMARK  240  A    between atoms: _613  and  _614
REMARK  241  A    between atoms: _614  and  _615
REMARK  242  A    between atoms: _615  and  _616
REMARK  243  A    between atoms: _625  and  _627
REMARK  244  A    between atoms: _627  and  _628
REMARK  245  A    between atoms: _630  and  _632
REMARK  246  A    between atoms: _632  and  _633
REMARK  247  A    between atoms: _632  and  _635
REMARK  248  A    between atoms: _635  and  _636
REMARK  249  A    between atoms: _642  and  _644
REMARK  250  A    between atoms: _644  and  _645
REMARK  251  A    between atoms: _644  and  _647
REMARK  252  A    between atoms: _647  and  _648
REMARK  253  A    between atoms: _648  and  _649
REMARK  254  A    between atoms: _651  and  _653
REMARK  255  A    between atoms: _653  and  _654
REMARK  256  A    between atoms: _653  and  _656
REMARK  257  A    between atoms: _656  and  _657
REMARK                            x       y       z     vdW  Elec       q    Type
REMARK                         _______ _______ _______ _____ _____    ______ ____
ROOT
ATOM      1  O   HOH     1       6.186  29.794  10.736  0.00  0.00    +0.000 OA
ENDROOT
TORSDOF 0
REMARK  Name = ../refined-set-2016/1ex8/1ex8_pocket.pdb
REMARK  257 active torsions:
REMARK  status: ('A' for Active; 'I' for Inactive)
REMARK    1  A    between atoms: _1  and  _3
REMARK    2  A    between atoms: _3  and  _4
REMARK    3  A    between atoms: _3  and  _6
REMARK    4  A    between atoms: _6  and  _7
REMARK    5  A    between atoms: _12  and  _13
REMARK    6  A    between atoms: _15  and  _17
REMARK    7  A    between atoms: _17  and  _18
REMARK    8  A    between atoms: _17  and  _20
REMARK    9  A    between atoms: _20  and  _21
REMARK   10  A    between atoms: _24  and  _26
REMARK   11  A    between atoms: _26  and  _27
REMARK   12  A    between atoms: _30  and  _32
REMARK   13  A    between atoms: _32  and  _33
REMARK   14  A    between atoms: _32  and  _35
REMARK   15  A    between atoms: _35  and  _36
REMARK   16  A    between atoms: _39  and  _41
REMARK   17  A    between atoms: _41  and  _42
REMARK   18  A    between atoms: _44  and  _46
REMARK   19  A    between atoms: _46  and  _47
REMARK   20  A    between atoms: _46  and  _49
REMARK   21  A    between atoms: _49  and  _50
REMARK   22  A    between atoms: _52  and  _54
REMARK   23  A    between atoms: _54  and  _55
REMARK   24  A    between atoms: _54  and  _57
REMARK   25  A    between atoms: _57  and  _58
REMARK   26  A    between atoms: _63  and  _65
REMARK   27  A    between atoms: _65  and  _66
REMARK   28  A    between atoms: _65  and  _68
REMARK   29  A    between atoms: _68  and  _69
REMARK   30  A    between atoms: _74  and  _75
REMARK   31  A    between atoms: _77  and  _79
REMARK   32  A    between atoms: _79  and  _80
REMARK   33  A    between atoms: _79  and  _82
REMARK   34  A    between atoms: _82  and  _83
REMARK   35  A    between atoms: _83  and  _84
REMARK   36  A    between atoms: _84  and  _85
REMARK   37  A    between atoms: _94  and  _96
REMARK   38  A    between atoms: _96  and  _97
REMARK   39  A    between atoms: _96  and  _99
REMARK   40  A    between atoms: _99  and  _100
REMARK   41  A    between atoms: _104  and  _105
REMARK   42  A    between atoms: _111  and  _112
REMARK   43  A    between atoms: _117  and  _119
REMARK   44  A    between atoms: _119  and  _120
REMARK   45  A    between atoms: _119  and  _122
REMARK   46  A    between atoms: _122  and  _123
REMARK   47  A    between atoms: _126  and  _128
REMARK   48  A    between atoms: _128  and  _129
REMARK   49  A    between atoms: _132  and  _133
REMARK   50  A    between atoms: _138  and  _140
REMARK   51  A    between atoms: _140  and  _141
REMARK   52  A    between atoms: _140  and  _143
REMARK   53  A    between atoms: _143  and  _144
REMARK   54  A    between atoms: _144  and  _145
REMARK   55  A    between atoms: _150  and  _152
REMARK   56  A    between atoms: _152  and  _153
REMARK   57  A    between atoms: _152  and  _155
REMARK   58  A    between atoms: _155  and  _156
REMARK   59  A    between atoms: _156  and  _157
REMARK   60  A    between atoms: _163  and  _164
REMARK   61  A    between atoms: _169  and  _171
REMARK   62  A    between atoms: _171  and  _172
REMARK   63  A    between atoms: _171  and  _174
REMARK   64  A    between atoms: _174  and  _175
REMARK   65  A    between atoms: _178  and  _180
REMARK   66  A    between atoms: _180  and  _181
REMARK   67  A    between atoms: _180  and  _183
REMARK   68  A    between atoms: _183  and  _184
REMARK   69  A    between atoms: _189  and  _190
REMARK   70  A    between atoms: _192  and  _194
REMARK   71  A    between atoms: _194  and  _195
REMARK   72  A    between atoms: _194  and  _197
REMARK   73  A    between atoms: _197  and  _198
REMARK   74  A    between atoms: _201  and  _203
REMARK   75  A    between atoms: _203  and  _204
REMARK   76  A    between atoms: _203  and  _206
REMARK   77  A    between atoms: _206  and  _207
REMARK   78  A    between atoms: _212  and  _214
REMARK   79  A    between atoms: _214  and  _215
REMARK   80  A    between atoms: _218  and  _220
REMARK   81  A    between atoms: _220  and  _221
REMARK   82  A    between atoms: _220  and  _223
REMARK   83  A    between atoms: _223  and  _224
REMARK   84  A    between atoms: _224  and  _225
REMARK   85  A    between atoms: _228  and  _230
REMARK   86  A    between atoms: _230  and  _231
REMARK   87  A    between atoms: _230  and  _233
REMARK   88  A    between atoms: _233  and  _234
REMARK   89  A    between atoms: _237  and  _239
REMARK   90  A    between atoms: _239  and  _240
REMARK   91  A    between atoms: _239  and  _242
REMARK   92  A    between atoms: _242  and  _243
REMARK   93  A    between atoms: _246  and  _248
REMARK   94  A    between atoms: _248  and  _249
REMARK   95  A    between atoms: _248  and  _251
REMARK   96  A    between atoms: _251  and  _252
REMARK   97  A    between atoms: _252  and  _253
REMARK   98  A    between atoms: _258  and  _260
REMARK   99  A    between atoms: _260  and  _261
REMARK  100  A    between atoms: _260  and  _263
REMARK  101  A    between atoms: _263  and  _264
REMARK  102  A    between atoms: _264  and  _265
REMARK  103  A    between atoms: _268  and  _270
REMARK  104  A    between atoms: _270  and  _271
REMARK  105  A    between atoms: _270  and  _273
REMARK  106  A    between atoms: _273  and  _274
REMARK  107  A    between atoms: _274  and  _275
REMARK  108  A    between atoms: _275  and  _276
REMARK  109  A    between atoms: _285  and  _287
REMARK  110  A    between atoms: _287  and  _288
REMARK  111  A    between atoms: _287  and  _290
REMARK  112  A    between atoms: _293  and  _295
REMARK  113  A    between atoms: _295  and  _296
REMARK  114  A    between atoms: _295  and  _298
REMARK  115  A    between atoms: _298  and  _299
REMARK  116  A    between atoms: _299  and  _300
REMARK  117  A    between atoms: _300  and  _301
REMARK  118  A    between atoms: _310  and  _312
REMARK  119  A    between atoms: _312  and  _313
REMARK  120  A    between atoms: _312  and  _315
REMARK  121  A    between atoms: _315  and  _316
REMARK  122  A    between atoms: _316  and  _317
REMARK  123  A    between atoms: _317  and  _318
REMARK  124  A    between atoms: _318  and  _319
REMARK  125  A    between atoms: _323  and  _325
REMARK  126  A    between atoms: _325  and  _326
REMARK  127  A    between atoms: _329  and  _331
REMARK  128  A    between atoms: _331  and  _332
REMARK  129  A    between atoms: _331  and  _334
REMARK  130  A    between atoms: _334  and  _335
REMARK  131  A    between atoms: _335  and  _336
REMARK  132  A    between atoms: _339  and  _341
REMARK  133  A    between atoms: _341  and  _342
REMARK  134  A    between atoms: _341  and  _344
REMARK  135  A    between atoms: _344  and  _345
REMARK  136  A    between atoms: _345  and  _346
REMARK  137  A    between atoms: _346  and  _347
REMARK  138  A    between atoms: _356  and  _358
REMARK  139  A    between atoms: _358  and  _359
REMARK  140  A    between atoms: _358  and  _361
REMARK  141  A    between atoms: _361  and  _362
REMARK  142  A    between atoms: _372  and  _374
REMARK  143  A    between atoms: _374  and  _375
REMARK  144  A    between atoms: _378  and  _379
REMARK  145  A    between atoms: _384  and  _386
REMARK  146  A    between atoms: _386  and  _387
REMARK  147  A    between atoms: _386  and  _389
REMARK  148  A    between atoms: _389  and  _390
REMARK  149  A    between atoms: _390  and  _391
REMARK  150  A    between atoms: _391  and  _392
REMARK  151  A    between atoms: _401  and  _403
REMARK  152  A    between atoms: _403  and  _404
REMARK  153  A    between atoms: _403  and  _406
REMARK  154  A    between atoms: _406  and  _407
REMARK  155  A    between atoms: _410  and  _412
REMARK  156  A    between atoms: _412  and  _413
REMARK  157  A    between atoms: _412  and  _415
REMARK  158  A    between atoms: _415  and  _416
REMARK  159  A    between atoms: _419  and  _421
REMARK  160  A    between atoms: _421  and  _422
REMARK  161  A    between atoms: _421  and  _424
REMARK  162  A    between atoms: _424  and  _425
REMARK  163  A    between atoms: _428  and  _430
REMARK  164  A    between atoms: _430  and  _431
REMARK  165  A    between atoms: _430  and  _433
REMARK  166  A    between atoms: _433  and  _434
REMARK  167  A    between atoms: _437  and  _439
REMARK  168  A    between atoms: _439  and  _440
REMARK  169  A    between atoms: _439  and  _442
REMARK  170  A    between atoms: _442  and  _443
REMARK  171  A    between atoms: _446  and  _448
REMARK  172  A    between atoms: _448  and  _449
REMARK  173  A    between atoms: _448  and  _451
REMARK  174  A    between atoms: _451  and  _452
REMARK  175  A    between atoms: _452  and  _453
REMARK  176  A    between atoms: _455  and  _457
REMARK  177  A    between atoms: _457  and  _458
REMARK  178  A    between atoms: _457  and  _460
REMARK  179  A    between atoms: _460  and  _461
REMARK  180  A    between atoms: _464  and  _466
REMARK  181  A    between atoms: _466  and  _467
REMARK  182  A    between atoms: _466  and  _469
REMARK  183  A    between atoms: _469  and  _470
REMARK  184  A    between atoms: _476  and  _478
REMARK  185  A    between atoms: _478  and  _479
REMARK  186  A    between atoms: _478  and  _481
REMARK  187  A    between atoms: _481  and  _482
REMARK  188  A    between atoms: _485  and  _487
REMARK  189  A    between atoms: _487  and  _488
REMARK  190  A    between atoms: _487  and  _490
REMARK  191  A    between atoms: _490  and  _491
REMARK  192  A    between atoms: _496  and  _498
REMARK  193  A    between atoms: _498  and  _499
REMARK  194  A    between atoms: _498  and  _501
REMARK  195  A    between atoms: _501  and  _502
REMARK  196  A    between atoms: _505  and  _507
REMARK  197  A    between atoms: _507  and  _508
REMARK  198  A    between atoms: _507  and  _510
REMARK  199  A    between atoms: _510  and  _511
REMARK  200  A    between atoms: _511  and  _512
REMARK  201  A    between atoms: _515  and  _517
REMARK  202  A    between atoms: _517  and  _518
REMARK  203  A    between atoms: _517  and  _520
REMARK  204  A    between atoms: _520  and  _521
REMARK  205  A    between atoms: _521  and  _522
REMARK  206  A    between atoms: _522  and  _523
REMARK  207  A    between atoms: _532  and  _534
REMARK  208  A    between atoms: _534  and  _535
REMARK  209  A    between atoms: _534  and  _537
REMARK  210  A    between atoms: _537  and  _538
REMARK  211  A    between atoms: _541  and  _543
REMARK  212  A    between atoms: _543  and  _544
REMARK  213  A    between atoms: _543  and  _546
REMARK  214  A    between atoms: _546  and  _547
REMARK  215  A    between atoms: _550  and  _552
REMARK  216  A    between atoms: _552  and  _553
REMARK  217  A    between atoms: _552  and  _555
REMARK  218  A    between atoms: _559  and  _560
REMARK  219  A    between atoms: _565  and  _567
REMARK  220  A    between atoms: _567  and  _568
REMARK  221  A    between atoms: _567  and  _570
REMARK  222  A    between atoms: _570  and  _571
REMARK  223  A    between atoms: _576  and  _578
REMARK  224  A    between atoms: _578  and  _579
REMARK  225  A    between atoms: _578  and  _581
REMARK  226  A    between atoms: _581  and  _582
REMARK  227  A    between atoms: _587  and  _588
REMARK  228  A    between atoms: _590  and  _592
REMARK  229  A    between atoms: _592  and  _593
REMARK  230  A    between atoms: _592  and  _595
REMARK  231  A    between atoms: _595  and  _596
REMARK  232  A    between atoms: _599  and  _601
REMARK  233  A    between atoms: _601  and  _602
REMARK  234  A    between atoms: _601  and  _604
REMARK  235  A    between atoms: _604  and  _605
REMARK  236  A    between atoms: _605  and  _606
REMARK  237  A    between atoms: _608  and  _610
REMARK  238  A    between atoms: _610  and  _611
REMARK  239  A    between atoms: _610  and  _613
REMARK  240  A    between atoms: _613  and  _614
REMARK  241  A    between atoms: _614  and  _615
REMARK  242  A    between atoms: _615  and  _616
REMARK  243  A    between atoms: _625  and  _627
REMARK  244  A    between atoms: _627  and  _628
REMARK  245  A    between atoms: _630  and  _632
REMARK  246  A    between atoms: _632  and  _633
REMARK  247  A    between atoms: _632  and  _635
REMARK  248  A    between atoms: _635  and  _636
REMARK  249  A    between atoms: _642  and  _644
REMARK  250  A    between atoms: _644  and  _645
REMARK  251  A    between atoms: _644  and  _647
REMARK  252  A    between atoms: _647  and  _648
REMARK  253  A    between atoms: _648  and  _649
REMARK  254  A    between atoms: _651  and  _653
REMARK  255  A    between atoms: _653  and  _654
REMARK  256  A    between atoms: _653  and  _656
REMARK  257  A    between atoms: _656  and  _657
REMARK                            x       y       z     vdW  Elec       q    Type
REMARK                         _______ _______ _______ _____ _____    ______ ____
ROOT
ATOM      1  O   HOH     1       0.419  23.440  21.341  0.00  0.00    +0.000 OA
ENDROOT
TORSDOF 0
REMARK  Name = ../refined-set-2016/1ex8/1ex8_pocket.pdb
REMARK  257 active torsions:
REMARK  status: ('A' for Active; 'I' for Inactive)
REMARK    1  A    between atoms: _1  and  _3
REMARK    2  A    between atoms: _3  and  _4
REMARK    3  A    between atoms: _3  and  _6
REMARK    4  A    between atoms: _6  and  _7
REMARK    5  A    between atoms: _12  and  _13
REMARK    6  A    between atoms: _15  and  _17
REMARK    7  A    between atoms: _17  and  _18
REMARK    8  A    between atoms: _17  and  _20
REMARK    9  A    between atoms: _20  and  _21
REMARK   10  A    between atoms: _24  and  _26
REMARK   11  A    between atoms: _26  and  _27
REMARK   12  A    between atoms: _30  and  _32
REMARK   13  A    between atoms: _32  and  _33
REMARK   14  A    between atoms: _32  and  _35
REMARK   15  A    between atoms: _35  and  _36
REMARK   16  A    between atoms: _39  and  _41
REMARK   17  A    between atoms: _41  and  _42
REMARK   18  A    between atoms: _44  and  _46
REMARK   19  A    between atoms: _46  and  _47
REMARK   20  A    between atoms: _46  and  _49
REMARK   21  A    between atoms: _49  and  _50
REMARK   22  A    between atoms: _52  and  _54
REMARK   23  A    between atoms: _54  and  _55
REMARK   24  A    between atoms: _54  and  _57
REMARK   25  A    between atoms: _57  and  _58
REMARK   26  A    between atoms: _63  and  _65
REMARK   27  A    between atoms: _65  and  _66
REMARK   28  A    between atoms: _65  and  _68
REMARK   29  A    between atoms: _68  and  _69
REMARK   30  A    between atoms: _74  and  _75
REMARK   31  A    between atoms: _77  and  _79
REMARK   32  A    between atoms: _79  and  _80
REMARK   33  A    between atoms: _79  and  _82
REMARK   34  A    between atoms: _82  and  _83
REMARK   35  A    between atoms: _83  and  _84
REMARK   36  A    between atoms: _84  and  _85
REMARK   37  A    between atoms: _94  and  _96
REMARK   38  A    between atoms: _96  and  _97
REMARK   39  A    between atoms: _96  and  _99
REMARK   40  A    between atoms: _99  and  _100
REMARK   41  A    between atoms: _104  and  _105
REMARK   42  A    between atoms: _111  and  _112
REMARK   43  A    between atoms: _117  and  _119
REMARK   44  A    between atoms: _119  and  _120
REMARK   45  A    between atoms: _119  and  _122
REMARK   46  A    between atoms: _122  and  _123
REMARK   47  A    between atoms: _126  and  _128
REMARK   48  A    between atoms: _128  and  _129
REMARK   49  A    between atoms: _132  and  _133
REMARK   50  A    between atoms: _138  and  _140
REMARK   51  A    between atoms: _140  and  _141
REMARK   52  A    between atoms: _140  and  _143
REMARK   53  A    between atoms: _143  and  _144
REMARK   54  A    between atoms: _144  and  _145
REMARK   55  A    between atoms: _150  and  _152
REMARK   56  A    between atoms: _152  and  _153
REMARK   57  A    between atoms: _152  and  _155
REMARK   58  A    between atoms: _155  and  _156
REMARK   59  A    between atoms: _156  and  _157
REMARK   60  A    between atoms: _163  and  _164
REMARK   61  A    between atoms: _169  and  _171
REMARK   62  A    between atoms: _171  and  _172
REMARK   63  A    between atoms: _171  and  _174
REMARK   64  A    between atoms: _174  and  _175
REMARK   65  A    between atoms: _178  and  _180
REMARK   66  A    between atoms: _180  and  _181
REMARK   67  A    between atoms: _180  and  _183
REMARK   68  A    between atoms: _183  and  _184
REMARK   69  A    between atoms: _189  and  _190
REMARK   70  A    between atoms: _192  and  _194
REMARK   71  A    between atoms: _194  and  _195
REMARK   72  A    between atoms: _194  and  _197
REMARK   73  A    between atoms: _197  and  _198
REMARK   74  A    between atoms: _201  and  _203
REMARK   75  A    between atoms: _203  and  _204
REMARK   76  A    between atoms: _203  and  _206
REMARK   77  A    between atoms: _206  and  _207
REMARK   78  A    between atoms: _212  and  _214
REMARK   79  A    between atoms: _214  and  _215
REMARK   80  A    between atoms: _218  and  _220
REMARK   81  A    between atoms: _220  and  _221
REMARK   82  A    between atoms: _220  and  _223
REMARK   83  A    between atoms: _223  and  _224
REMARK   84  A    between atoms: _224  and  _225
REMARK   85  A    between atoms: _228  and  _230
REMARK   86  A    between atoms: _230  and  _231
REMARK   87  A    between atoms: _230  and  _233
REMARK   88  A    between atoms: _233  and  _234
REMARK   89  A    between atoms: _237  and  _239
REMARK   90  A    between atoms: _239  and  _240
REMARK   91  A    between atoms: _239  and  _242
REMARK   92  A    between atoms: _242  and  _243
REMARK   93  A    between atoms: _246  and  _248
REMARK   94  A    between atoms: _248  and  _249
REMARK   95  A    between atoms: _248  and  _251
REMARK   96  A    between atoms: _251  and  _252
REMARK   97  A    between atoms: _252  and  _253
REMARK   98  A    between atoms: _258  and  _260
REMARK   99  A    between atoms: _260  and  _261
REMARK  100  A    between atoms: _260  and  _263
REMARK  101  A    between atoms: _263  and  _264
REMARK  102  A    between atoms: _264  and  _265
REMARK  103  A    between atoms: _268  and  _270
REMARK  104  A    between atoms: _270  and  _271
REMARK  105  A    between atoms: _270  and  _273
REMARK  106  A    between atoms: _273  and  _274
REMARK  107  A    between atoms: _274  and  _275
REMARK  108  A    between atoms: _275  and  _276
REMARK  109  A    between atoms: _285  and  _287
REMARK  110  A    between atoms: _287  and  _288
REMARK  111  A    between atoms: _287  and  _290
REMARK  112  A    between atoms: _293  and  _295
REMARK  113  A    between atoms: _295  and  _296
REMARK  114  A    between atoms: _295  and  _298
REMARK  115  A    between atoms: _298  and  _299
REMARK  116  A    between atoms: _299  and  _300
REMARK  117  A    between atoms: _300  and  _301
REMARK  118  A    between atoms: _310  and  _312
REMARK  119  A    between atoms: _312  and  _313
REMARK  120  A    between atoms: _312  and  _315
REMARK  121  A    between atoms: _315  and  _316
REMARK  122  A    between atoms: _316  and  _317
REMARK  123  A    between atoms: _317  and  _318
REMARK  124  A    between atoms: _318  and  _319
REMARK  125  A    between atoms: _323  and  _325
REMARK  126  A    between atoms: _325  and  _326
REMARK  127  A    between atoms: _329  and  _331
REMARK  128  A    between atoms: _331  and  _332
REMARK  129  A    between atoms: _331  and  _334
REMARK  130  A    between atoms: _334  and  _335
REMARK  131  A    between atoms: _335  and  _336
REMARK  132  A    between atoms: _339  and  _341
REMARK  133  A    between atoms: _341  and  _342
REMARK  134  A    between atoms: _341  and  _344
REMARK  135  A    between atoms: _344  and  _345
REMARK  136  A    between atoms: _345  and  _346
REMARK  137  A    between atoms: _346  and  _347
REMARK  138  A    between atoms: _356  and  _358
REMARK  139  A    between atoms: _358  and  _359
REMARK  140  A    between atoms: _358  and  _361
REMARK  141  A    between atoms: _361  and  _362
REMARK  142  A    between atoms: _372  and  _374
REMARK  143  A    between atoms: _374  and  _375
REMARK  144  A    between atoms: _378  and  _379
REMARK  145  A    between atoms: _384  and  _386
REMARK  146  A    between atoms: _386  and  _387
REMARK  147  A    between atoms: _386  and  _389
REMARK  148  A    between atoms: _389  and  _390
REMARK  149  A    between atoms: _390  and  _391
REMARK  150  A    between atoms: _391  and  _392
REMARK  151  A    between atoms: _401  and  _403
REMARK  152  A    between atoms: _403  and  _404
REMARK  153  A    between atoms: _403  and  _406
REMARK  154  A    between atoms: _406  and  _407
REMARK  155  A    between atoms: _410  and  _412
REMARK  156  A    between atoms: _412  and  _413
REMARK  157  A    between atoms: _412  and  _415
REMARK  158  A    between atoms: _415  and  _416
REMARK  159  A    between atoms: _419  and  _421
REMARK  160  A    between atoms: _421  and  _422
REMARK  161  A    between atoms: _421  and  _424
REMARK  162  A    between atoms: _424  and  _425
REMARK  163  A    between atoms: _428  and  _430
REMARK  164  A    between atoms: _430  and  _431
REMARK  165  A    between atoms: _430  and  _433
REMARK  166  A    between atoms: _433  and  _434
REMARK  167  A    between atoms: _437  and  _439
REMARK  168  A    between atoms: _439  and  _440
REMARK  169  A    between atoms: _439  and  _442
REMARK  170  A    between atoms: _442  and  _443
REMARK  171  A    between atoms: _446  and  _448
REMARK  172  A    between atoms: _448  and  _449
REMARK  173  A    between atoms: _448  and  _451
REMARK  174  A    between atoms: _451  and  _452
REMARK  175  A    between atoms: _452  and  _453
REMARK  176  A    between atoms: _455  and  _457
REMARK  177  A    between atoms: _457  and  _458
REMARK  178  A    between atoms: _457  and  _460
REMARK  179  A    between atoms: _460  and  _461
REMARK  180  A    between atoms: _464  and  _466
REMARK  181  A    between atoms: _466  and  _467
REMARK  182  A    between atoms: _466  and  _469
REMARK  183  A    between atoms: _469  and  _470
REMARK  184  A    between atoms: _476  and  _478
REMARK  185  A    between atoms: _478  and  _479
REMARK  186  A    between atoms: _478  and  _481
REMARK  187  A    between atoms: _481  and  _482
REMARK  188  A    between atoms: _485  and  _487
REMARK  189  A    between atoms: _487  and  _488
REMARK  190  A    between atoms: _487  and  _490
REMARK  191  A    between atoms: _490  and  _491
REMARK  192  A    between atoms: _496  and  _498
REMARK  193  A    between atoms: _498  and  _499
REMARK  194  A    between atoms: _498  and  _501
REMARK  195  A    between atoms: _501  and  _502
REMARK  196  A    between atoms: _505  and  _507
REMARK  197  A    between atoms: _507  and  _508
REMARK  198  A    between atoms: _507  and  _510
REMARK  199  A    between atoms: _510  and  _511
REMARK  200  A    between atoms: _511  and  _512
REMARK  201  A    between atoms: _515  and  _517
REMARK  202  A    between atoms: _517  and  _518
REMARK  203  A    between atoms: _517  and  _520
REMARK  204  A    between atoms: _520  and  _521
REMARK  205  A    between atoms: _521  and  _522
REMARK  206  A    between atoms: _522  and  _523
REMARK  207  A    between atoms: _532  and  _534
REMARK  208  A    between atoms: _534  and  _535
REMARK  209  A    between atoms: _534  and  _537
REMARK  210  A    between atoms: _537  and  _538
REMARK  211  A    between atoms: _541  and  _543
REMARK  212  A    between atoms: _543  and  _544
REMARK  213  A    between atoms: _543  and  _546
REMARK  214  A    between atoms: _546  and  _547
REMARK  215  A    between atoms: _550  and  _552
REMARK  216  A    between atoms: _552  and  _553
REMARK  217  A    between atoms: _552  and  _555
REMARK  218  A    between atoms: _559  and  _560
REMARK  219  A    between atoms: _565  and  _567
REMARK  220  A    between atoms: _567  and  _568
REMARK  221  A    between atoms: _567  and  _570
REMARK  222  A    between atoms: _570  and  _571
REMARK  223  A    between atoms: _576  and  _578
REMARK  224  A    between atoms: _578  and  _579
REMARK  225  A    between atoms: _578  and  _581
REMARK  226  A    between atoms: _581  and  _582
REMARK  227  A    between atoms: _587  and  _588
REMARK  228  A    between atoms: _590  and  _592
REMARK  229  A    between atoms: _592  and  _593
REMARK  230  A    between atoms: _592  and  _595
REMARK  231  A    between atoms: _595  and  _596
REMARK  232  A    between atoms: _599  and  _601
REMARK  233  A    between atoms: _601  and  _602
REMARK  234  A    between atoms: _601  and  _604
REMARK  235  A    between atoms: _604  and  _605
REMARK  236  A    between atoms: _605  and  _606
REMARK  237  A    between atoms: _608  and  _610
REMARK  238  A    between atoms: _610  and  _611
REMARK  239  A    between atoms: _610  and  _613
REMARK  240  A    between atoms: _613  and  _614
REMARK  241  A    between atoms: _614  and  _615
REMARK  242  A    between atoms: _615  and  _616
REMARK  243  A    between atoms: _625  and  _627
REMARK  244  A    between atoms: _627  and  _628
REMARK  245  A    between atoms: _630  and  _632
REMARK  246  A    between atoms: _632  and  _633
REMARK  247  A    between atoms: _632  and  _635
REMARK  248  A    between atoms: _635  and  _636
REMARK  249  A    between atoms: _642  and  _644
REMARK  250  A    between atoms: _644  and  _645
REMARK  251  A    between atoms: _644  and  _647
REMARK  252  A    between atoms: _647  and  _648
REMARK  253  A    between atoms: _648  and  _649
REMARK  254  A    between atoms: _651  and  _653
REMARK  255  A    between atoms: _653  and  _654
REMARK  256  A    between atoms: _653  and  _656
REMARK  257  A    between atoms: _656  and  _657
REMARK                            x       y       z     vdW  Elec       q    Type
REMARK                         _______ _______ _______ _____ _____    ______ ____
ROOT
ATOM      1  O   HOH     1      -6.063  16.744  24.118  0.00  0.00    +0.000 OA
ENDROOT
TORSDOF 0
REMARK  Name = ../refined-set-2016/1ex8/1ex8_pocket.pdb
REMARK  257 active torsions:
REMARK  status: ('A' for Active; 'I' for Inactive)
REMARK    1  A    between atoms: _1  and  _3
REMARK    2  A    between atoms: _3  and  _4
REMARK    3  A    between atoms: _3  and  _6
REMARK    4  A    between atoms: _6  and  _7
REMARK    5  A    between atoms: _12  and  _13
REMARK    6  A    between atoms: _15  and  _17
REMARK    7  A    between atoms: _17  and  _18
REMARK    8  A    between atoms: _17  and  _20
REMARK    9  A    between atoms: _20  and  _21
REMARK   10  A    between atoms: _24  and  _26
REMARK   11  A    between atoms: _26  and  _27
REMARK   12  A    between atoms: _30  and  _32
REMARK   13  A    between atoms: _32  and  _33
REMARK   14  A    between atoms: _32  and  _35
REMARK   15  A    between atoms: _35  and  _36
REMARK   16  A    between atoms: _39  and  _41
REMARK   17  A    between atoms: _41  and  _42
REMARK   18  A    between atoms: _44  and  _46
REMARK   19  A    between atoms: _46  and  _47
REMARK   20  A    between atoms: _46  and  _49
REMARK   21  A    between atoms: _49  and  _50
REMARK   22  A    between atoms: _52  and  _54
REMARK   23  A    between atoms: _54  and  _55
REMARK   24  A    between atoms: _54  and  _57
REMARK   25  A    between atoms: _57  and  _58
REMARK   26  A    between atoms: _63  and  _65
REMARK   27  A    between atoms: _65  and  _66
REMARK   28  A    between atoms: _65  and  _68
REMARK   29  A    between atoms: _68  and  _69
REMARK   30  A    between atoms: _74  and  _75
REMARK   31  A    between atoms: _77  and  _79
REMARK   32  A    between atoms: _79  and  _80
REMARK   33  A    between atoms: _79  and  _82
REMARK   34  A    between atoms: _82  and  _83
REMARK   35  A    between atoms: _83  and  _84
REMARK   36  A    between atoms: _84  and  _85
REMARK   37  A    between atoms: _94  and  _96
REMARK   38  A    between atoms: _96  and  _97
REMARK   39  A    between atoms: _96  and  _99
REMARK   40  A    between atoms: _99  and  _100
REMARK   41  A    between atoms: _104  and  _105
REMARK   42  A    between atoms: _111  and  _112
REMARK   43  A    between atoms: _117  and  _119
REMARK   44  A    between atoms: _119  and  _120
REMARK   45  A    between atoms: _119  and  _122
REMARK   46  A    between atoms: _122  and  _123
REMARK   47  A    between atoms: _126  and  _128
REMARK   48  A    between atoms: _128  and  _129
REMARK   49  A    between atoms: _132  and  _133
REMARK   50  A    between atoms: _138  and  _140
REMARK   51  A    between atoms: _140  and  _141
REMARK   52  A    between atoms: _140  and  _143
REMARK   53  A    between atoms: _143  and  _144
REMARK   54  A    between atoms: _144  and  _145
REMARK   55  A    between atoms: _150  and  _152
REMARK   56  A    between atoms: _152  and  _153
REMARK   57  A    between atoms: _152  and  _155
REMARK   58  A    between atoms: _155  and  _156
REMARK   59  A    between atoms: _156  and  _157
REMARK   60  A    between atoms: _163  and  _164
REMARK   61  A    between atoms: _169  and  _171
REMARK   62  A    between atoms: _171  and  _172
REMARK   63  A    between atoms: _171  and  _174
REMARK   64  A    between atoms: _174  and  _175
REMARK   65  A    between atoms: _178  and  _180
REMARK   66  A    between atoms: _180  and  _181
REMARK   67  A    between atoms: _180  and  _183
REMARK   68  A    between atoms: _183  and  _184
REMARK   69  A    between atoms: _189  and  _190
REMARK   70  A    between atoms: _192  and  _194
REMARK   71  A    between atoms: _194  and  _195
REMARK   72  A    between atoms: _194  and  _197
REMARK   73  A    between atoms: _197  and  _198
REMARK   74  A    between atoms: _201  and  _203
REMARK   75  A    between atoms: _203  and  _204
REMARK   76  A    between atoms: _203  and  _206
REMARK   77  A    between atoms: _206  and  _207
REMARK   78  A    between atoms: _212  and  _214
REMARK   79  A    between atoms: _214  and  _215
REMARK   80  A    between atoms: _218  and  _220
REMARK   81  A    between atoms: _220  and  _221
REMARK   82  A    between atoms: _220  and  _223
REMARK   83  A    between atoms: _223  and  _224
REMARK   84  A    between atoms: _224  and  _225
REMARK   85  A    between atoms: _228  and  _230
REMARK   86  A    between atoms: _230  and  _231
REMARK   87  A    between atoms: _230  and  _233
REMARK   88  A    between atoms: _233  and  _234
REMARK   89  A    between atoms: _237  and  _239
REMARK   90  A    between atoms: _239  and  _240
REMARK   91  A    between atoms: _239  and  _242
REMARK   92  A    between atoms: _242  and  _243
REMARK   93  A    between atoms: _246  and  _248
REMARK   94  A    between atoms: _248  and  _249
REMARK   95  A    between atoms: _248  and  _251
REMARK   96  A    between atoms: _251  and  _252
REMARK   97  A    between atoms: _252  and  _253
REMARK   98  A    between atoms: _258  and  _260
REMARK   99  A    between atoms: _260  and  _261
REMARK  100  A    between atoms: _260  and  _263
REMARK  101  A    between atoms: _263  and  _264
REMARK  102  A    between atoms: _264  and  _265
REMARK  103  A    between atoms: _268  and  _270
REMARK  104  A    between atoms: _270  and  _271
REMARK  105  A    between atoms: _270  and  _273
REMARK  106  A    between atoms: _273  and  _274
REMARK  107  A    between atoms: _274  and  _275
REMARK  108  A    between atoms: _275  and  _276
REMARK  109  A    between atoms: _285  and  _287
REMARK  110  A    between atoms: _287  and  _288
REMARK  111  A    between atoms: _287  and  _290
REMARK  112  A    between atoms: _293  and  _295
REMARK  113  A    between atoms: _295  and  _296
REMARK  114  A    between atoms: _295  and  _298
REMARK  115  A    between atoms: _298  and  _299
REMARK  116  A    between atoms: _299  and  _300
REMARK  117  A    between atoms: _300  and  _301
REMARK  118  A    between atoms: _310  and  _312
REMARK  119  A    between atoms: _312  and  _313
REMARK  120  A    between atoms: _312  and  _315
REMARK  121  A    between atoms: _315  and  _316
REMARK  122  A    between atoms: _316  and  _317
REMARK  123  A    between atoms: _317  and  _318
REMARK  124  A    between atoms: _318  and  _319
REMARK  125  A    between atoms: _323  and  _325
REMARK  126  A    between atoms: _325  and  _326
REMARK  127  A    between atoms: _329  and  _331
REMARK  128  A    between atoms: _331  and  _332
REMARK  129  A    between atoms: _331  and  _334
REMARK  130  A    between atoms: _334  and  _335
REMARK  131  A    between atoms: _335  and  _336
REMARK  132  A    between atoms: _339  and  _341
REMARK  133  A    between atoms: _341  and  _342
REMARK  134  A    between atoms: _341  and  _344
REMARK  135  A    between atoms: _344  and  _345
REMARK  136  A    between atoms: _345  and  _346
REMARK  137  A    between atoms: _346  and  _347
REMARK  138  A    between atoms: _356  and  _358
REMARK  139  A    between atoms: _358  and  _359
REMARK  140  A    between atoms: _358  and  _361
REMARK  141  A    between atoms: _361  and  _362
REMARK  142  A    between atoms: _372  and  _374
REMARK  143  A    between atoms: _374  and  _375
REMARK  144  A    between atoms: _378  and  _379
REMARK  145  A    between atoms: _384  and  _386
REMARK  146  A    between atoms: _386  and  _387
REMARK  147  A    between atoms: _386  and  _389
REMARK  148  A    between atoms: _389  and  _390
REMARK  149  A    between atoms: _390  and  _391
REMARK  150  A    between atoms: _391  and  _392
REMARK  151  A    between atoms: _401  and  _403
REMARK  152  A    between atoms: _403  and  _404
REMARK  153  A    between atoms: _403  and  _406
REMARK  154  A    between atoms: _406  and  _407
REMARK  155  A    between atoms: _410  and  _412
REMARK  156  A    between atoms: _412  and  _413
REMARK  157  A    between atoms: _412  and  _415
REMARK  158  A    between atoms: _415  and  _416
REMARK  159  A    between atoms: _419  and  _421
REMARK  160  A    between atoms: _421  and  _422
REMARK  161  A    between atoms: _421  and  _424
REMARK  162  A    between atoms: _424  and  _425
REMARK  163  A    between atoms: _428  and  _430
REMARK  164  A    between atoms: _430  and  _431
REMARK  165  A    between atoms: _430  and  _433
REMARK  166  A    between atoms: _433  and  _434
REMARK  167  A    between atoms: _437  and  _439
REMARK  168  A    between atoms: _439  and  _440
REMARK  169  A    between atoms: _439  and  _442
REMARK  170  A    between atoms: _442  and  _443
REMARK  171  A    between atoms: _446  and  _448
REMARK  172  A    between atoms: _448  and  _449
REMARK  173  A    between atoms: _448  and  _451
REMARK  174  A    between atoms: _451  and  _452
REMARK  175  A    between atoms: _452  and  _453
REMARK  176  A    between atoms: _455  and  _457
REMARK  177  A    between atoms: _457  and  _458
REMARK  178  A    between atoms: _457  and  _460
REMARK  179  A    between atoms: _460  and  _461
REMARK  180  A    between atoms: _464  and  _466
REMARK  181  A    between atoms: _466  and  _467
REMARK  182  A    between atoms: _466  and  _469
REMARK  183  A    between atoms: _469  and  _470
REMARK  184  A    between atoms: _476  and  _478
REMARK  185  A    between atoms: _478  and  _479
REMARK  186  A    between atoms: _478  and  _481
REMARK  187  A    between atoms: _481  and  _482
REMARK  188  A    between atoms: _485  and  _487
REMARK  189  A    between atoms: _487  and  _488
REMARK  190  A    between atoms: _487  and  _490
REMARK  191  A    between atoms: _490  and  _491
REMARK  192  A    between atoms: _496  and  _498
REMARK  193  A    between atoms: _498  and  _499
REMARK  194  A    between atoms: _498  and  _501
REMARK  195  A    between atoms: _501  and  _502
REMARK  196  A    between atoms: _505  and  _507
REMARK  197  A    between atoms: _507  and  _508
REMARK  198  A    between atoms: _507  and  _510
REMARK  199  A    between atoms: _510  and  _511
REMARK  200  A    between atoms: _511  and  _512
REMARK  201  A    between atoms: _515  and  _517
REMARK  202  A    between atoms: _517  and  _518
REMARK  203  A    between atoms: _517  and  _520
REMARK  204  A    between atoms: _520  and  _521
REMARK  205  A    between atoms: _521  and  _522
REMARK  206  A    between atoms: _522  and  _523
REMARK  207  A    between atoms: _532  and  _534
REMARK  208  A    between atoms: _534  and  _535
REMARK  209  A    between atoms: _534  and  _537
REMARK  210  A    between atoms: _537  and  _538
REMARK  211  A    between atoms: _541  and  _543
REMARK  212  A    between atoms: _543  and  _544
REMARK  213  A    between atoms: _543  and  _546
REMARK  214  A    between atoms: _546  and  _547
REMARK  215  A    between atoms: _550  and  _552
REMARK  216  A    between atoms: _552  and  _553
REMARK  217  A    between atoms: _552  and  _555
REMARK  218  A    between atoms: _559  and  _560
REMARK  219  A    between atoms: _565  and  _567
REMARK  220  A    between atoms: _567  and  _568
REMARK  221  A    between atoms: _567  and  _570
REMARK  222  A    between atoms: _570  and  _571
REMARK  223  A    between atoms: _576  and  _578
REMARK  224  A    between atoms: _578  and  _579
REMARK  225  A    between atoms: _578  and  _581
REMARK  226  A    between atoms: _581  and  _582
REMARK  227  A    between atoms: _587  and  _588
REMARK  228  A    between atoms: _590  and  _592
REMARK  229  A    between atoms: _592  and  _593
REMARK  230  A    between atoms: _592  and  _595
REMARK  231  A    between atoms: _595  and  _596
REMARK  232  A    between atoms: _599  and  _601
REMARK  233  A    between atoms: _601  and  _602
REMARK  234  A    between atoms: _601  and  _604
REMARK  235  A    between atoms: _604  and  _605
REMARK  236  A    between atoms: _605  and  _606
REMARK  237  A    between atoms: _608  and  _610
REMARK  238  A    between atoms: _610  and  _611
REMARK  239  A    between atoms: _610  and  _613
REMARK  240  A    between atoms: _613  and  _614
REMARK  241  A    between atoms: _614  and  _615
REMARK  242  A    between atoms: _615  and  _616
REMARK  243  A    between atoms: _625  and  _627
REMARK  244  A    between atoms: _627  and  _628
REMARK  245  A    between atoms: _630  and  _632
REMARK  246  A    between atoms: _632  and  _633
REMARK  247  A    between atoms: _632  and  _635
REMARK  248  A    between atoms: _635  and  _636
REMARK  249  A    between atoms: _642  and  _644
REMARK  250  A    between atoms: _644  and  _645
REMARK  251  A    between atoms: _644  and  _647
REMARK  252  A    between atoms: _647  and  _648
REMARK  253  A    between atoms: _648  and  _649
REMARK  254  A    between atoms: _651  and  _653
REMARK  255  A    between atoms: _653  and  _654
REMARK  256  A    between atoms: _653  and  _656
REMARK  257  A    between atoms: _656  and  _657
REMARK                            x       y       z     vdW  Elec       q    Type
REMARK                         _______ _______ _______ _____ _____    ______ ____
ROOT
ATOM      1  O   HOH     1       2.052  13.282  20.615  0.00  0.00    +0.000 OA
ENDROOT
TORSDOF 0
REMARK  Name = ../refined-set-2016/1ex8/1ex8_pocket.pdb
REMARK  257 active torsions:
REMARK  status: ('A' for Active; 'I' for Inactive)
REMARK    1  A    between atoms: _1  and  _3
REMARK    2  A    between atoms: _3  and  _4
REMARK    3  A    between atoms: _3  and  _6
REMARK    4  A    between atoms: _6  and  _7
REMARK    5  A    between atoms: _12  and  _13
REMARK    6  A    between atoms: _15  and  _17
REMARK    7  A    between atoms: _17  and  _18
REMARK    8  A    between atoms: _17  and  _20
REMARK    9  A    between atoms: _20  and  _21
REMARK   10  A    between atoms: _24  and  _26
REMARK   11  A    between atoms: _26  and  _27
REMARK   12  A    between atoms: _30  and  _32
REMARK   13  A    between atoms: _32  and  _33
REMARK   14  A    between atoms: _32  and  _35
REMARK   15  A    between atoms: _35  and  _36
REMARK   16  A    between atoms: _39  and  _41
REMARK   17  A    between atoms: _41  and  _42
REMARK   18  A    between atoms: _44  and  _46
REMARK   19  A    between atoms: _46  and  _47
REMARK   20  A    between atoms: _46  and  _49
REMARK   21  A    between atoms: _49  and  _50
REMARK   22  A    between atoms: _52  and  _54
REMARK   23  A    between atoms: _54  and  _55
REMARK   24  A    between atoms: _54  and  _57
REMARK   25  A    between atoms: _57  and  _58
REMARK   26  A    between atoms: _63  and  _65
REMARK   27  A    between atoms: _65  and  _66
REMARK   28  A    between atoms: _65  and  _68
REMARK   29  A    between atoms: _68  and  _69
REMARK   30  A    between atoms: _74  and  _75
REMARK   31  A    between atoms: _77  and  _79
REMARK   32  A    between atoms: _79  and  _80
REMARK   33  A    between atoms: _79  and  _82
REMARK   34  A    between atoms: _82  and  _83
REMARK   35  A    between atoms: _83  and  _84
REMARK   36  A    between atoms: _84  and  _85
REMARK   37  A    between atoms: _94  and  _96
REMARK   38  A    between atoms: _96  and  _97
REMARK   39  A    between atoms: _96  and  _99
REMARK   40  A    between atoms: _99  and  _100
REMARK   41  A    between atoms: _104  and  _105
REMARK   42  A    between atoms: _111  and  _112
REMARK   43  A    between atoms: _117  and  _119
REMARK   44  A    between atoms: _119  and  _120
REMARK   45  A    between atoms: _119  and  _122
REMARK   46  A    between atoms: _122  and  _123
REMARK   47  A    between atoms: _126  and  _128
REMARK   48  A    between atoms: _128  and  _129
REMARK   49  A    between atoms: _132  and  _133
REMARK   50  A    between atoms: _138  and  _140
REMARK   51  A    between atoms: _140  and  _141
REMARK   52  A    between atoms: _140  and  _143
REMARK   53  A    between atoms: _143  and  _144
REMARK   54  A    between atoms: _144  and  _145
REMARK   55  A    between atoms: _150  and  _152
REMARK   56  A    between atoms: _152  and  _153
REMARK   57  A    between atoms: _152  and  _155
REMARK   58  A    between atoms: _155  and  _156
REMARK   59  A    between atoms: _156  and  _157
REMARK   60  A    between atoms: _163  and  _164
REMARK   61  A    between atoms: _169  and  _171
REMARK   62  A    between atoms: _171  and  _172
REMARK   63  A    between atoms: _171  and  _174
REMARK   64  A    between atoms: _174  and  _175
REMARK   65  A    between atoms: _178  and  _180
REMARK   66  A    between atoms: _180  and  _181
REMARK   67  A    between atoms: _180  and  _183
REMARK   68  A    between atoms: _183  and  _184
REMARK   69  A    between atoms: _189  and  _190
REMARK   70  A    between atoms: _192  and  _194
REMARK   71  A    between atoms: _194  and  _195
REMARK   72  A    between atoms: _194  and  _197
REMARK   73  A    between atoms: _197  and  _198
REMARK   74  A    between atoms: _201  and  _203
REMARK   75  A    between atoms: _203  and  _204
REMARK   76  A    between atoms: _203  and  _206
REMARK   77  A    between atoms: _206  and  _207
REMARK   78  A    between atoms: _212  and  _214
REMARK   79  A    between atoms: _214  and  _215
REMARK   80  A    between atoms: _218  and  _220
REMARK   81  A    between atoms: _220  and  _221
REMARK   82  A    between atoms: _220  and  _223
REMARK   83  A    between atoms: _223  and  _224
REMARK   84  A    between atoms: _224  and  _225
REMARK   85  A    between atoms: _228  and  _230
REMARK   86  A    between atoms: _230  and  _231
REMARK   87  A    between atoms: _230  and  _233
REMARK   88  A    between atoms: _233  and  _234
REMARK   89  A    between atoms: _237  and  _239
REMARK   90  A    between atoms: _239  and  _240
REMARK   91  A    between atoms: _239  and  _242
REMARK   92  A    between atoms: _242  and  _243
REMARK   93  A    between atoms: _246  and  _248
REMARK   94  A    between atoms: _248  and  _249
REMARK   95  A    between atoms: _248  and  _251
REMARK   96  A    between atoms: _251  and  _252
REMARK   97  A    between atoms: _252  and  _253
REMARK   98  A    between atoms: _258  and  _260
REMARK   99  A    between atoms: _260  and  _261
REMARK  100  A    between atoms: _260  and  _263
REMARK  101  A    between atoms: _263  and  _264
REMARK  102  A    between atoms: _264  and  _265
REMARK  103  A    between atoms: _268  and  _270
REMARK  104  A    between atoms: _270  and  _271
REMARK  105  A    between atoms: _270  and  _273
REMARK  106  A    between atoms: _273  and  _274
REMARK  107  A    between atoms: _274  and  _275
REMARK  108  A    between atoms: _275  and  _276
REMARK  109  A    between atoms: _285  and  _287
REMARK  110  A    between atoms: _287  and  _288
REMARK  111  A    between atoms: _287  and  _290
REMARK  112  A    between atoms: _293  and  _295
REMARK  113  A    between atoms: _295  and  _296
REMARK  114  A    between atoms: _295  and  _298
REMARK  115  A    between atoms: _298  and  _299
REMARK  116  A    between atoms: _299  and  _300
REMARK  117  A    between atoms: _300  and  _301
REMARK  118  A    between atoms: _310  and  _312
REMARK  119  A    between atoms: _312  and  _313
REMARK  120  A    between atoms: _312  and  _315
REMARK  121  A    between atoms: _315  and  _316
REMARK  122  A    between atoms: _316  and  _317
REMARK  123  A    between atoms: _317  and  _318
REMARK  124  A    between atoms: _318  and  _319
REMARK  125  A    between atoms: _323  and  _325
REMARK  126  A    between atoms: _325  and  _326
REMARK  127  A    between atoms: _329  and  _331
REMARK  128  A    between atoms: _331  and  _332
REMARK  129  A    between atoms: _331  and  _334
REMARK  130  A    between atoms: _334  and  _335
REMARK  131  A    between atoms: _335  and  _336
REMARK  132  A    between atoms: _339  and  _341
REMARK  133  A    between atoms: _341  and  _342
REMARK  134  A    between atoms: _341  and  _344
REMARK  135  A    between atoms: _344  and  _345
REMARK  136  A    between atoms: _345  and  _346
REMARK  137  A    between atoms: _346  and  _347
REMARK  138  A    between atoms: _356  and  _358
REMARK  139  A    between atoms: _358  and  _359
REMARK  140  A    between atoms: _358  and  _361
REMARK  141  A    between atoms: _361  and  _362
REMARK  142  A    between atoms: _372  and  _374
REMARK  143  A    between atoms: _374  and  _375
REMARK  144  A    between atoms: _378  and  _379
REMARK  145  A    between atoms: _384  and  _386
REMARK  146  A    between atoms: _386  and  _387
REMARK  147  A    between atoms: _386  and  _389
REMARK  148  A    between atoms: _389  and  _390
REMARK  149  A    between atoms: _390  and  _391
REMARK  150  A    between atoms: _391  and  _392
REMARK  151  A    between atoms: _401  and  _403
REMARK  152  A    between atoms: _403  and  _404
REMARK  153  A    between atoms: _403  and  _406
REMARK  154  A    between atoms: _406  and  _407
REMARK  155  A    between atoms: _410  and  _412
REMARK  156  A    between atoms: _412  and  _413
REMARK  157  A    between atoms: _412  and  _415
REMARK  158  A    between atoms: _415  and  _416
REMARK  159  A    between atoms: _419  and  _421
REMARK  160  A    between atoms: _421  and  _422
REMARK  161  A    between atoms: _421  and  _424
REMARK  162  A    between atoms: _424  and  _425
REMARK  163  A    between atoms: _428  and  _430
REMARK  164  A    between atoms: _430  and  _431
REMARK  165  A    between atoms: _430  and  _433
REMARK  166  A    between atoms: _433  and  _434
REMARK  167  A    between atoms: _437  and  _439
REMARK  168  A    between atoms: _439  and  _440
REMARK  169  A    between atoms: _439  and  _442
REMARK  170  A    between atoms: _442  and  _443
REMARK  171  A    between atoms: _446  and  _448
REMARK  172  A    between atoms: _448  and  _449
REMARK  173  A    between atoms: _448  and  _451
REMARK  174  A    between atoms: _451  and  _452
REMARK  175  A    between atoms: _452  and  _453
REMARK  176  A    between atoms: _455  and  _457
REMARK  177  A    between atoms: _457  and  _458
REMARK  178  A    between atoms: _457  and  _460
REMARK  179  A    between atoms: _460  and  _461
REMARK  180  A    between atoms: _464  and  _466
REMARK  181  A    between atoms: _466  and  _467
REMARK  182  A    between atoms: _466  and  _469
REMARK  183  A    between atoms: _469  and  _470
REMARK  184  A    between atoms: _476  and  _478
REMARK  185  A    between atoms: _478  and  _479
REMARK  186  A    between atoms: _478  and  _481
REMARK  187  A    between atoms: _481  and  _482
REMARK  188  A    between atoms: _485  and  _487
REMARK  189  A    between atoms: _487  and  _488
REMARK  190  A    between atoms: _487  and  _490
REMARK  191  A    between atoms: _490  and  _491
REMARK  192  A    between atoms: _496  and  _498
REMARK  193  A    between atoms: _498  and  _499
REMARK  194  A    between atoms: _498  and  _501
REMARK  195  A    between atoms: _501  and  _502
REMARK  196  A    between atoms: _505  and  _507
REMARK  197  A    between atoms: _507  and  _508
REMARK  198  A    between atoms: _507  and  _510
REMARK  199  A    between atoms: _510  and  _511
REMARK  200  A    between atoms: _511  and  _512
REMARK  201  A    between atoms: _515  and  _517
REMARK  202  A    between atoms: _517  and  _518
REMARK  203  A    between atoms: _517  and  _520
REMARK  204  A    between atoms: _520  and  _521
REMARK  205  A    between atoms: _521  and  _522
REMARK  206  A    between atoms: _522  and  _523
REMARK  207  A    between atoms: _532  and  _534
REMARK  208  A    between atoms: _534  and  _535
REMARK  209  A    between atoms: _534  and  _537
REMARK  210  A    between atoms: _537  and  _538
REMARK  211  A    between atoms: _541  and  _543
REMARK  212  A    between atoms: _543  and  _544
REMARK  213  A    between atoms: _543  and  _546
REMARK  214  A    between atoms: _546  and  _547
REMARK  215  A    between atoms: _550  and  _552
REMARK  216  A    between atoms: _552  and  _553
REMARK  217  A    between atoms: _552  and  _555
REMARK  218  A    between atoms: _559  and  _560
REMARK  219  A    between atoms: _565  and  _567
REMARK  220  A    between atoms: _567  and  _568
REMARK  221  A    between atoms: _567  and  _570
REMARK  222  A    between atoms: _570  and  _571
REMARK  223  A    between atoms: _576  and  _578
REMARK  224  A    between atoms: _578  and  _579
REMARK  225  A    between atoms: _578  and  _581
REMARK  226  A    between atoms: _581  and  _582
REMARK  227  A    between atoms: _587  and  _588
REMARK  228  A    between atoms: _590  and  _592
REMARK  229  A    between atoms: _592  and  _593
REMARK  230  A    between atoms: _592  and  _595
REMARK  231  A    between atoms: _595  and  _596
REMARK  232  A    between atoms: _599  and  _601
REMARK  233  A    between atoms: _601  and  _602
REMARK  234  A    between atoms: _601  and  _604
REMARK  235  A    between atoms: _604  and  _605
REMARK  236  A    between atoms: _605  and  _606
REMARK  237  A    between atoms: _608  and  _610
REMARK  238  A    between atoms: _610  and  _611
REMARK  239  A    between atoms: _610  and  _613
REMARK  240  A    between atoms: _613  and  _614
REMARK  241  A    between atoms: _614  and  _615
REMARK  242  A    between atoms: _615  and  _616
REMARK  243  A    between atoms: _625  and  _627
REMARK  244  A    between atoms: _627  and  _628
REMARK  245  A    between atoms: _630  and  _632
REMARK  246  A    between atoms: _632  and  _633
REMARK  247  A    between atoms: _632  and  _635
REMARK  248  A    between atoms: _635  and  _636
REMARK  249  A    between atoms: _642  and  _644
REMARK  250  A    between atoms: _644  and  _645
REMARK  251  A    between atoms: _644  and  _647
REMARK  252  A    between atoms: _647  and  _648
REMARK  253  A    between atoms: _648  and  _649
REMARK  254  A    between atoms: _651  and  _653
REMARK  255  A    between atoms: _653  and  _654
REMARK  256  A    between atoms: _653  and  _656
REMARK  257  A    between atoms: _656  and  _657
REMARK                            x       y       z     vdW  Elec       q    Type
REMARK                         _______ _______ _______ _____ _____    ______ ____
ROOT
ATOM      1  O   HOH     1       4.315  16.510  19.354  0.00  0.00    +0.000 OA
ENDROOT
TORSDOF 0
REMARK  Name = ../refined-set-2016/1ex8/1ex8_pocket.pdb
REMARK  257 active torsions:
REMARK  status: ('A' for Active; 'I' for Inactive)
REMARK    1  A    between atoms: _1  and  _3
REMARK    2  A    between atoms: _3  and  _4
REMARK    3  A    between atoms: _3  and  _6
REMARK    4  A    between atoms: _6  and  _7
REMARK    5  A    between atoms: _12  and  _13
REMARK    6  A    between atoms: _15  and  _17
REMARK    7  A    between atoms: _17  and  _18
REMARK    8  A    between atoms: _17  and  _20
REMARK    9  A    between atoms: _20  and  _21
REMARK   10  A    between atoms: _24  and  _26
REMARK   11  A    between atoms: _26  and  _27
REMARK   12  A    between atoms: _30  and  _32
REMARK   13  A    between atoms: _32  and  _33
REMARK   14  A    between atoms: _32  and  _35
REMARK   15  A    between atoms: _35  and  _36
REMARK   16  A    between atoms: _39  and  _41
REMARK   17  A    between atoms: _41  and  _42
REMARK   18  A    between atoms: _44  and  _46
REMARK   19  A    between atoms: _46  and  _47
REMARK   20  A    between atoms: _46  and  _49
REMARK   21  A    between atoms: _49  and  _50
REMARK   22  A    between atoms: _52  and  _54
REMARK   23  A    between atoms: _54  and  _55
REMARK   24  A    between atoms: _54  and  _57
REMARK   25  A    between atoms: _57  and  _58
REMARK   26  A    between atoms: _63  and  _65
REMARK   27  A    between atoms: _65  and  _66
REMARK   28  A    between atoms: _65  and  _68
REMARK   29  A    between atoms: _68  and  _69
REMARK   30  A    between atoms: _74  and  _75
REMARK   31  A    between atoms: _77  and  _79
REMARK   32  A    between atoms: _79  and  _80
REMARK   33  A    between atoms: _79  and  _82
REMARK   34  A    between atoms: _82  and  _83
REMARK   35  A    between atoms: _83  and  _84
REMARK   36  A    between atoms: _84  and  _85
REMARK   37  A    between atoms: _94  and  _96
REMARK   38  A    between atoms: _96  and  _97
REMARK   39  A    between atoms: _96  and  _99
REMARK   40  A    between atoms: _99  and  _100
REMARK   41  A    between atoms: _104  and  _105
REMARK   42  A    between atoms: _111  and  _112
REMARK   43  A    between atoms: _117  and  _119
REMARK   44  A    between atoms: _119  and  _120
REMARK   45  A    between atoms: _119  and  _122
REMARK   46  A    between atoms: _122  and  _123
REMARK   47  A    between atoms: _126  and  _128
REMARK   48  A    between atoms: _128  and  _129
REMARK   49  A    between atoms: _132  and  _133
REMARK   50  A    between atoms: _138  and  _140
REMARK   51  A    between atoms: _140  and  _141
REMARK   52  A    between atoms: _140  and  _143
REMARK   53  A    between atoms: _143  and  _144
REMARK   54  A    between atoms: _144  and  _145
REMARK   55  A    between atoms: _150  and  _152
REMARK   56  A    between atoms: _152  and  _153
REMARK   57  A    between atoms: _152  and  _155
REMARK   58  A    between atoms: _155  and  _156
REMARK   59  A    between atoms: _156  and  _157
REMARK   60  A    between atoms: _163  and  _164
REMARK   61  A    between atoms: _169  and  _171
REMARK   62  A    between atoms: _171  and  _172
REMARK   63  A    between atoms: _171  and  _174
REMARK   64  A    between atoms: _174  and  _175
REMARK   65  A    between atoms: _178  and  _180
REMARK   66  A    between atoms: _180  and  _181
REMARK   67  A    between atoms: _180  and  _183
REMARK   68  A    between atoms: _183  and  _184
REMARK   69  A    between atoms: _189  and  _190
REMARK   70  A    between atoms: _192  and  _194
REMARK   71  A    between atoms: _194  and  _195
REMARK   72  A    between atoms: _194  and  _197
REMARK   73  A    between atoms: _197  and  _198
REMARK   74  A    between atoms: _201  and  _203
REMARK   75  A    between atoms: _203  and  _204
REMARK   76  A    between atoms: _203  and  _206
REMARK   77  A    between atoms: _206  and  _207
REMARK   78  A    between atoms: _212  and  _214
REMARK   79  A    between atoms: _214  and  _215
REMARK   80  A    between atoms: _218  and  _220
REMARK   81  A    between atoms: _220  and  _221
REMARK   82  A    between atoms: _220  and  _223
REMARK   83  A    between atoms: _223  and  _224
REMARK   84  A    between atoms: _224  and  _225
REMARK   85  A    between atoms: _228  and  _230
REMARK   86  A    between atoms: _230  and  _231
REMARK   87  A    between atoms: _230  and  _233
REMARK   88  A    between atoms: _233  and  _234
REMARK   89  A    between atoms: _237  and  _239
REMARK   90  A    between atoms: _239  and  _240
REMARK   91  A    between atoms: _239  and  _242
REMARK   92  A    between atoms: _242  and  _243
REMARK   93  A    between atoms: _246  and  _248
REMARK   94  A    between atoms: _248  and  _249
REMARK   95  A    between atoms: _248  and  _251
REMARK   96  A    between atoms: _251  and  _252
REMARK   97  A    between atoms: _252  and  _253
REMARK   98  A    between atoms: _258  and  _260
REMARK   99  A    between atoms: _260  and  _261
REMARK  100  A    between atoms: _260  and  _263
REMARK  101  A    between atoms: _263  and  _264
REMARK  102  A    between atoms: _264  and  _265
REMARK  103  A    between atoms: _268  and  _270
REMARK  104  A    between atoms: _270  and  _271
REMARK  105  A    between atoms: _270  and  _273
REMARK  106  A    between atoms: _273  and  _274
REMARK  107  A    between atoms: _274  and  _275
REMARK  108  A    between atoms: _275  and  _276
REMARK  109  A    between atoms: _285  and  _287
REMARK  110  A    between atoms: _287  and  _288
REMARK  111  A    between atoms: _287  and  _290
REMARK  112  A    between atoms: _293  and  _295
REMARK  113  A    between atoms: _295  and  _296
REMARK  114  A    between atoms: _295  and  _298
REMARK  115  A    between atoms: _298  and  _299
REMARK  116  A    between atoms: _299  and  _300
REMARK  117  A    between atoms: _300  and  _301
REMARK  118  A    between atoms: _310  and  _312
REMARK  119  A    between atoms: _312  and  _313
REMARK  120  A    between atoms: _312  and  _315
REMARK  121  A    between atoms: _315  and  _316
REMARK  122  A    between atoms: _316  and  _317
REMARK  123  A    between atoms: _317  and  _318
REMARK  124  A    between atoms: _318  and  _319
REMARK  125  A    between atoms: _323  and  _325
REMARK  126  A    between atoms: _325  and  _326
REMARK  127  A    between atoms: _329  and  _331
REMARK  128  A    between atoms: _331  and  _332
REMARK  129  A    between atoms: _331  and  _334
REMARK  130  A    between atoms: _334  and  _335
REMARK  131  A    between atoms: _335  and  _336
REMARK  132  A    between atoms: _339  and  _341
REMARK  133  A    between atoms: _341  and  _342
REMARK  134  A    between atoms: _341  and  _344
REMARK  135  A    between atoms: _344  and  _345
REMARK  136  A    between atoms: _345  and  _346
REMARK  137  A    between atoms: _346  and  _347
REMARK  138  A    between atoms: _356  and  _358
REMARK  139  A    between atoms: _358  and  _359
REMARK  140  A    between atoms: _358  and  _361
REMARK  141  A    between atoms: _361  and  _362
REMARK  142  A    between atoms: _372  and  _374
REMARK  143  A    between atoms: _374  and  _375
REMARK  144  A    between atoms: _378  and  _379
REMARK  145  A    between atoms: _384  and  _386
REMARK  146  A    between atoms: _386  and  _387
REMARK  147  A    between atoms: _386  and  _389
REMARK  148  A    between atoms: _389  and  _390
REMARK  149  A    between atoms: _390  and  _391
REMARK  150  A    between atoms: _391  and  _392
REMARK  151  A    between atoms: _401  and  _403
REMARK  152  A    between atoms: _403  and  _404
REMARK  153  A    between atoms: _403  and  _406
REMARK  154  A    between atoms: _406  and  _407
REMARK  155  A    between atoms: _410  and  _412
REMARK  156  A    between atoms: _412  and  _413
REMARK  157  A    between atoms: _412  and  _415
REMARK  158  A    between atoms: _415  and  _416
REMARK  159  A    between atoms: _419  and  _421
REMARK  160  A    between atoms: _421  and  _422
REMARK  161  A    between atoms: _421  and  _424
REMARK  162  A    between atoms: _424  and  _425
REMARK  163  A    between atoms: _428  and  _430
REMARK  164  A    between atoms: _430  and  _431
REMARK  165  A    between atoms: _430  and  _433
REMARK  166  A    between atoms: _433  and  _434
REMARK  167  A    between atoms: _437  and  _439
REMARK  168  A    between atoms: _439  and  _440
REMARK  169  A    between atoms: _439  and  _442
REMARK  170  A    between atoms: _442  and  _443
REMARK  171  A    between atoms: _446  and  _448
REMARK  172  A    between atoms: _448  and  _449
REMARK  173  A    between atoms: _448  and  _451
REMARK  174  A    between atoms: _451  and  _452
REMARK  175  A    between atoms: _452  and  _453
REMARK  176  A    between atoms: _455  and  _457
REMARK  177  A    between atoms: _457  and  _458
REMARK  178  A    between atoms: _457  and  _460
REMARK  179  A    between atoms: _460  and  _461
REMARK  180  A    between atoms: _464  and  _466
REMARK  181  A    between atoms: _466  and  _467
REMARK  182  A    between atoms: _466  and  _469
REMARK  183  A    between atoms: _469  and  _470
REMARK  184  A    between atoms: _476  and  _478
REMARK  185  A    between atoms: _478  and  _479
REMARK  186  A    between atoms: _478  and  _481
REMARK  187  A    between atoms: _481  and  _482
REMARK  188  A    between atoms: _485  and  _487
REMARK  189  A    between atoms: _487  and  _488
REMARK  190  A    between atoms: _487  and  _490
REMARK  191  A    between atoms: _490  and  _491
REMARK  192  A    between atoms: _496  and  _498
REMARK  193  A    between atoms: _498  and  _499
REMARK  194  A    between atoms: _498  and  _501
REMARK  195  A    between atoms: _501  and  _502
REMARK  196  A    between atoms: _505  and  _507
REMARK  197  A    between atoms: _507  and  _508
REMARK  198  A    between atoms: _507  and  _510
REMARK  199  A    between atoms: _510  and  _511
REMARK  200  A    between atoms: _511  and  _512
REMARK  201  A    between atoms: _515  and  _517
REMARK  202  A    between atoms: _517  and  _518
REMARK  203  A    between atoms: _517  and  _520
REMARK  204  A    between atoms: _520  and  _521
REMARK  205  A    between atoms: _521  and  _522
REMARK  206  A    between atoms: _522  and  _523
REMARK  207  A    between atoms: _532  and  _534
REMARK  208  A    between atoms: _534  and  _535
REMARK  209  A    between atoms: _534  and  _537
REMARK  210  A    between atoms: _537  and  _538
REMARK  211  A    between atoms: _541  and  _543
REMARK  212  A    between atoms: _543  and  _544
REMARK  213  A    between atoms: _543  and  _546
REMARK  214  A    between atoms: _546  and  _547
REMARK  215  A    between atoms: _550  and  _552
REMARK  216  A    between atoms: _552  and  _553
REMARK  217  A    between atoms: _552  and  _555
REMARK  218  A    between atoms: _559  and  _560
REMARK  219  A    between atoms: _565  and  _567
REMARK  220  A    between atoms: _567  and  _568
REMARK  221  A    between atoms: _567  and  _570
REMARK  222  A    between atoms: _570  and  _571
REMARK  223  A    between atoms: _576  and  _578
REMARK  224  A    between atoms: _578  and  _579
REMARK  225  A    between atoms: _578  and  _581
REMARK  226  A    between atoms: _581  and  _582
REMARK  227  A    between atoms: _587  and  _588
REMARK  228  A    between atoms: _590  and  _592
REMARK  229  A    between atoms: _592  and  _593
REMARK  230  A    between atoms: _592  and  _595
REMARK  231  A    between atoms: _595  and  _596
REMARK  232  A    between atoms: _599  and  _601
REMARK  233  A    between atoms: _601  and  _602
REMARK  234  A    between atoms: _601  and  _604
REMARK  235  A    between atoms: _604  and  _605
REMARK  236  A    between atoms: _605  and  _606
REMARK  237  A    between atoms: _608  and  _610
REMARK  238  A    between atoms: _610  and  _611
REMARK  239  A    between atoms: _610  and  _613
REMARK  240  A    between atoms: _613  and  _614
REMARK  241  A    between atoms: _614  and  _615
REMARK  242  A    between atoms: _615  and  _616
REMARK  243  A    between atoms: _625  and  _627
REMARK  244  A    between atoms: _627  and  _628
REMARK  245  A    between atoms: _630  and  _632
REMARK  246  A    between atoms: _632  and  _633
REMARK  247  A    between atoms: _632  and  _635
REMARK  248  A    between atoms: _635  and  _636
REMARK  249  A    between atoms: _642  and  _644
REMARK  250  A    between atoms: _644  and  _645
REMARK  251  A    between atoms: _644  and  _647
REMARK  252  A    between atoms: _647  and  _648
REMARK  253  A    between atoms: _648  and  _649
REMARK  254  A    between atoms: _651  and  _653
REMARK  255  A    between atoms: _653  and  _654
REMARK  256  A    between atoms: _653  and  _656
REMARK  257  A    between atoms: _656  and  _657
REMARK                            x       y       z     vdW  Elec       q    Type
REMARK                         _______ _______ _______ _____ _____    ______ ____
ROOT
ATOM      1  O   HOH     1       3.181  21.841  17.591  0.00  0.00    +0.000 OA
ENDROOT
TORSDOF 0
REMARK  Name = ../refined-set-2016/1ex8/1ex8_pocket.pdb
REMARK  257 active torsions:
REMARK  status: ('A' for Active; 'I' for Inactive)
REMARK    1  A    between atoms: _1  and  _3
REMARK    2  A    between atoms: _3  and  _4
REMARK    3  A    between atoms: _3  and  _6
REMARK    4  A    between atoms: _6  and  _7
REMARK    5  A    between atoms: _12  and  _13
REMARK    6  A    between atoms: _15  and  _17
REMARK    7  A    between atoms: _17  and  _18
REMARK    8  A    between atoms: _17  and  _20
REMARK    9  A    between atoms: _20  and  _21
REMARK   10  A    between atoms: _24  and  _26
REMARK   11  A    between atoms: _26  and  _27
REMARK   12  A    between atoms: _30  and  _32
REMARK   13  A    between atoms: _32  and  _33
REMARK   14  A    between atoms: _32  and  _35
REMARK   15  A    between atoms: _35  and  _36
REMARK   16  A    between atoms: _39  and  _41
REMARK   17  A    between atoms: _41  and  _42
REMARK   18  A    between atoms: _44  and  _46
REMARK   19  A    between atoms: _46  and  _47
REMARK   20  A    between atoms: _46  and  _49
REMARK   21  A    between atoms: _49  and  _50
REMARK   22  A    between atoms: _52  and  _54
REMARK   23  A    between atoms: _54  and  _55
REMARK   24  A    between atoms: _54  and  _57
REMARK   25  A    between atoms: _57  and  _58
REMARK   26  A    between atoms: _63  and  _65
REMARK   27  A    between atoms: _65  and  _66
REMARK   28  A    between atoms: _65  and  _68
REMARK   29  A    between atoms: _68  and  _69
REMARK   30  A    between atoms: _74  and  _75
REMARK   31  A    between atoms: _77  and  _79
REMARK   32  A    between atoms: _79  and  _80
REMARK   33  A    between atoms: _79  and  _82
REMARK   34  A    between atoms: _82  and  _83
REMARK   35  A    between atoms: _83  and  _84
REMARK   36  A    between atoms: _84  and  _85
REMARK   37  A    between atoms: _94  and  _96
REMARK   38  A    between atoms: _96  and  _97
REMARK   39  A    between atoms: _96  and  _99
REMARK   40  A    between atoms: _99  and  _100
REMARK   41  A    between atoms: _104  and  _105
REMARK   42  A    between atoms: _111  and  _112
REMARK   43  A    between atoms: _117  and  _119
REMARK   44  A    between atoms: _119  and  _120
REMARK   45  A    between atoms: _119  and  _122
REMARK   46  A    between atoms: _122  and  _123
REMARK   47  A    between atoms: _126  and  _128
REMARK   48  A    between atoms: _128  and  _129
REMARK   49  A    between atoms: _132  and  _133
REMARK   50  A    between atoms: _138  and  _140
REMARK   51  A    between atoms: _140  and  _141
REMARK   52  A    between atoms: _140  and  _143
REMARK   53  A    between atoms: _143  and  _144
REMARK   54  A    between atoms: _144  and  _145
REMARK   55  A    between atoms: _150  and  _152
REMARK   56  A    between atoms: _152  and  _153
REMARK   57  A    between atoms: _152  and  _155
REMARK   58  A    between atoms: _155  and  _156
REMARK   59  A    between atoms: _156  and  _157
REMARK   60  A    between atoms: _163  and  _164
REMARK   61  A    between atoms: _169  and  _171
REMARK   62  A    between atoms: _171  and  _172
REMARK   63  A    between atoms: _171  and  _174
REMARK   64  A    between atoms: _174  and  _175
REMARK   65  A    between atoms: _178  and  _180
REMARK   66  A    between atoms: _180  and  _181
REMARK   67  A    between atoms: _180  and  _183
REMARK   68  A    between atoms: _183  and  _184
REMARK   69  A    between atoms: _189  and  _190
REMARK   70  A    between atoms: _192  and  _194
REMARK   71  A    between atoms: _194  and  _195
REMARK   72  A    between atoms: _194  and  _197
REMARK   73  A    between atoms: _197  and  _198
REMARK   74  A    between atoms: _201  and  _203
REMARK   75  A    between atoms: _203  and  _204
REMARK   76  A    between atoms: _203  and  _206
REMARK   77  A    between atoms: _206  and  _207
REMARK   78  A    between atoms: _212  and  _214
REMARK   79  A    between atoms: _214  and  _215
REMARK   80  A    between atoms: _218  and  _220
REMARK   81  A    between atoms: _220  and  _221
REMARK   82  A    between atoms: _220  and  _223
REMARK   83  A    between atoms: _223  and  _224
REMARK   84  A    between atoms: _224  and  _225
REMARK   85  A    between atoms: _228  and  _230
REMARK   86  A    between atoms: _230  and  _231
REMARK   87  A    between atoms: _230  and  _233
REMARK   88  A    between atoms: _233  and  _234
REMARK   89  A    between atoms: _237  and  _239
REMARK   90  A    between atoms: _239  and  _240
REMARK   91  A    between atoms: _239  and  _242
REMARK   92  A    between atoms: _242  and  _243
REMARK   93  A    between atoms: _246  and  _248
REMARK   94  A    between atoms: _248  and  _249
REMARK   95  A    between atoms: _248  and  _251
REMARK   96  A    between atoms: _251  and  _252
REMARK   97  A    between atoms: _252  and  _253
REMARK   98  A    between atoms: _258  and  _260
REMARK   99  A    between atoms: _260  and  _261
REMARK  100  A    between atoms: _260  and  _263
REMARK  101  A    between atoms: _263  and  _264
REMARK  102  A    between atoms: _264  and  _265
REMARK  103  A    between atoms: _268  and  _270
REMARK  104  A    between atoms: _270  and  _271
REMARK  105  A    between atoms: _270  and  _273
REMARK  106  A    between atoms: _273  and  _274
REMARK  107  A    between atoms: _274  and  _275
REMARK  108  A    between atoms: _275  and  _276
REMARK  109  A    between atoms: _285  and  _287
REMARK  110  A    between atoms: _287  and  _288
REMARK  111  A    between atoms: _287  and  _290
REMARK  112  A    between atoms: _293  and  _295
REMARK  113  A    between atoms: _295  and  _296
REMARK  114  A    between atoms: _295  and  _298
REMARK  115  A    between atoms: _298  and  _299
REMARK  116  A    between atoms: _299  and  _300
REMARK  117  A    between atoms: _300  and  _301
REMARK  118  A    between atoms: _310  and  _312
REMARK  119  A    between atoms: _312  and  _313
REMARK  120  A    between atoms: _312  and  _315
REMARK  121  A    between atoms: _315  and  _316
REMARK  122  A    between atoms: _316  and  _317
REMARK  123  A    between atoms: _317  and  _318
REMARK  124  A    between atoms: _318  and  _319
REMARK  125  A    between atoms: _323  and  _325
REMARK  126  A    between atoms: _325  and  _326
REMARK  127  A    between atoms: _329  and  _331
REMARK  128  A    between atoms: _331  and  _332
REMARK  129  A    between atoms: _331  and  _334
REMARK  130  A    between atoms: _334  and  _335
REMARK  131  A    between atoms: _335  and  _336
REMARK  132  A    between atoms: _339  and  _341
REMARK  133  A    between atoms: _341  and  _342
REMARK  134  A    between atoms: _341  and  _344
REMARK  135  A    between atoms: _344  and  _345
REMARK  136  A    between atoms: _345  and  _346
REMARK  137  A    between atoms: _346  and  _347
REMARK  138  A    between atoms: _356  and  _358
REMARK  139  A    between atoms: _358  and  _359
REMARK  140  A    between atoms: _358  and  _361
REMARK  141  A    between atoms: _361  and  _362
REMARK  142  A    between atoms: _372  and  _374
REMARK  143  A    between atoms: _374  and  _375
REMARK  144  A    between atoms: _378  and  _379
REMARK  145  A    between atoms: _384  and  _386
REMARK  146  A    between atoms: _386  and  _387
REMARK  147  A    between atoms: _386  and  _389
REMARK  148  A    between atoms: _389  and  _390
REMARK  149  A    between atoms: _390  and  _391
REMARK  150  A    between atoms: _391  and  _392
REMARK  151  A    between atoms: _401  and  _403
REMARK  152  A    between atoms: _403  and  _404
REMARK  153  A    between atoms: _403  and  _406
REMARK  154  A    between atoms: _406  and  _407
REMARK  155  A    between atoms: _410  and  _412
REMARK  156  A    between atoms: _412  and  _413
REMARK  157  A    between atoms: _412  and  _415
REMARK  158  A    between atoms: _415  and  _416
REMARK  159  A    between atoms: _419  and  _421
REMARK  160  A    between atoms: _421  and  _422
REMARK  161  A    between atoms: _421  and  _424
REMARK  162  A    between atoms: _424  and  _425
REMARK  163  A    between atoms: _428  and  _430
REMARK  164  A    between atoms: _430  and  _431
REMARK  165  A    between atoms: _430  and  _433
REMARK  166  A    between atoms: _433  and  _434
REMARK  167  A    between atoms: _437  and  _439
REMARK  168  A    between atoms: _439  and  _440
REMARK  169  A    between atoms: _439  and  _442
REMARK  170  A    between atoms: _442  and  _443
REMARK  171  A    between atoms: _446  and  _448
REMARK  172  A    between atoms: _448  and  _449
REMARK  173  A    between atoms: _448  and  _451
REMARK  174  A    between atoms: _451  and  _452
REMARK  175  A    between atoms: _452  and  _453
REMARK  176  A    between atoms: _455  and  _457
REMARK  177  A    between atoms: _457  and  _458
REMARK  178  A    between atoms: _457  and  _460
REMARK  179  A    between atoms: _460  and  _461
REMARK  180  A    between atoms: _464  and  _466
REMARK  181  A    between atoms: _466  and  _467
REMARK  182  A    between atoms: _466  and  _469
REMARK  183  A    between atoms: _469  and  _470
REMARK  184  A    between atoms: _476  and  _478
REMARK  185  A    between atoms: _478  and  _479
REMARK  186  A    between atoms: _478  and  _481
REMARK  187  A    between atoms: _481  and  _482
REMARK  188  A    between atoms: _485  and  _487
REMARK  189  A    between atoms: _487  and  _488
REMARK  190  A    between atoms: _487  and  _490
REMARK  191  A    between atoms: _490  and  _491
REMARK  192  A    between atoms: _496  and  _498
REMARK  193  A    between atoms: _498  and  _499
REMARK  194  A    between atoms: _498  and  _501
REMARK  195  A    between atoms: _501  and  _502
REMARK  196  A    between atoms: _505  and  _507
REMARK  197  A    between atoms: _507  and  _508
REMARK  198  A    between atoms: _507  and  _510
REMARK  199  A    between atoms: _510  and  _511
REMARK  200  A    between atoms: _511  and  _512
REMARK  201  A    between atoms: _515  and  _517
REMARK  202  A    between atoms: _517  and  _518
REMARK  203  A    between atoms: _517  and  _520
REMARK  204  A    between atoms: _520  and  _521
REMARK  205  A    between atoms: _521  and  _522
REMARK  206  A    between atoms: _522  and  _523
REMARK  207  A    between atoms: _532  and  _534
REMARK  208  A    between atoms: _534  and  _535
REMARK  209  A    between atoms: _534  and  _537
REMARK  210  A    between atoms: _537  and  _538
REMARK  211  A    between atoms: _541  and  _543
REMARK  212  A    between atoms: _543  and  _544
REMARK  213  A    between atoms: _543  and  _546
REMARK  214  A    between atoms: _546  and  _547
REMARK  215  A    between atoms: _550  and  _552
REMARK  216  A    between atoms: _552  and  _553
REMARK  217  A    between atoms: _552  and  _555
REMARK  218  A    between atoms: _559  and  _560
REMARK  219  A    between atoms: _565  and  _567
REMARK  220  A    between atoms: _567  and  _568
REMARK  221  A    between atoms: _567  and  _570
REMARK  222  A    between atoms: _570  and  _571
REMARK  223  A    between atoms: _576  and  _578
REMARK  224  A    between atoms: _578  and  _579
REMARK  225  A    between atoms: _578  and  _581
REMARK  226  A    between atoms: _581  and  _582
REMARK  227  A    between atoms: _587  and  _588
REMARK  228  A    between atoms: _590  and  _592
REMARK  229  A    between atoms: _592  and  _593
REMARK  230  A    between atoms: _592  and  _595
REMARK  231  A    between atoms: _595  and  _596
REMARK  232  A    between atoms: _599  and  _601
REMARK  233  A    between atoms: _601  and  _602
REMARK  234  A    between atoms: _601  and  _604
REMARK  235  A    between atoms: _604  and  _605
REMARK  236  A    between atoms: _605  and  _606
REMARK  237  A    between atoms: _608  and  _610
REMARK  238  A    between atoms: _610  and  _611
REMARK  239  A    between atoms: _610  and  _613
REMARK  240  A    between atoms: _613  and  _614
REMARK  241  A    between atoms: _614  and  _615
REMARK  242  A    between atoms: _615  and  _616
REMARK  243  A    between atoms: _625  and  _627
REMARK  244  A    between atoms: _627  and  _628
REMARK  245  A    between atoms: _630  and  _632
REMARK  246  A    between atoms: _632  and  _633
REMARK  247  A    between atoms: _632  and  _635
REMARK  248  A    between atoms: _635  and  _636
REMARK  249  A    between atoms: _642  and  _644
REMARK  250  A    between atoms: _644  and  _645
REMARK  251  A    between atoms: _644  and  _647
REMARK  252  A    between atoms: _647  and  _648
REMARK  253  A    between atoms: _648  and  _649
REMARK  254  A    between atoms: _651  and  _653
REMARK  255  A    between atoms: _653  and  _654
REMARK  256  A    between atoms: _653  and  _656
REMARK  257  A    between atoms: _656  and  _657
REMARK                            x       y       z     vdW  Elec       q    Type
REMARK                         _______ _______ _______ _____ _____    ______ ____
ROOT
ATOM      1  O   HOH     1       3.558  20.688  29.567  0.00  0.00    +0.000 OA
ENDROOT
TORSDOF 0
REMARK  Name = ../refined-set-2016/1ex8/1ex8_pocket.pdb
REMARK  257 active torsions:
REMARK  status: ('A' for Active; 'I' for Inactive)
REMARK    1  A    between atoms: _1  and  _3
REMARK    2  A    between atoms: _3  and  _4
REMARK    3  A    between atoms: _3  and  _6
REMARK    4  A    between atoms: _6  and  _7
REMARK    5  A    between atoms: _12  and  _13
REMARK    6  A    between atoms: _15  and  _17
REMARK    7  A    between atoms: _17  and  _18
REMARK    8  A    between atoms: _17  and  _20
REMARK    9  A    between atoms: _20  and  _21
REMARK   10  A    between atoms: _24  and  _26
REMARK   11  A    between atoms: _26  and  _27
REMARK   12  A    between atoms: _30  and  _32
REMARK   13  A    between atoms: _32  and  _33
REMARK   14  A    between atoms: _32  and  _35
REMARK   15  A    between atoms: _35  and  _36
REMARK   16  A    between atoms: _39  and  _41
REMARK   17  A    between atoms: _41  and  _42
REMARK   18  A    between atoms: _44  and  _46
REMARK   19  A    between atoms: _46  and  _47
REMARK   20  A    between atoms: _46  and  _49
REMARK   21  A    between atoms: _49  and  _50
REMARK   22  A    between atoms: _52  and  _54
REMARK   23  A    between atoms: _54  and  _55
REMARK   24  A    between atoms: _54  and  _57
REMARK   25  A    between atoms: _57  and  _58
REMARK   26  A    between atoms: _63  and  _65
REMARK   27  A    between atoms: _65  and  _66
REMARK   28  A    between atoms: _65  and  _68
REMARK   29  A    between atoms: _68  and  _69
REMARK   30  A    between atoms: _74  and  _75
REMARK   31  A    between atoms: _77  and  _79
REMARK   32  A    between atoms: _79  and  _80
REMARK   33  A    between atoms: _79  and  _82
REMARK   34  A    between atoms: _82  and  _83
REMARK   35  A    between atoms: _83  and  _84
REMARK   36  A    between atoms: _84  and  _85
REMARK   37  A    between atoms: _94  and  _96
REMARK   38  A    between atoms: _96  and  _97
REMARK   39  A    between atoms: _96  and  _99
REMARK   40  A    between atoms: _99  and  _100
REMARK   41  A    between atoms: _104  and  _105
REMARK   42  A    between atoms: _111  and  _112
REMARK   43  A    between atoms: _117  and  _119
REMARK   44  A    between atoms: _119  and  _120
REMARK   45  A    between atoms: _119  and  _122
REMARK   46  A    between atoms: _122  and  _123
REMARK   47  A    between atoms: _126  and  _128
REMARK   48  A    between atoms: _128  and  _129
REMARK   49  A    between atoms: _132  and  _133
REMARK   50  A    between atoms: _138  and  _140
REMARK   51  A    between atoms: _140  and  _141
REMARK   52  A    between atoms: _140  and  _143
REMARK   53  A    between atoms: _143  and  _144
REMARK   54  A    between atoms: _144  and  _145
REMARK   55  A    between atoms: _150  and  _152
REMARK   56  A    between atoms: _152  and  _153
REMARK   57  A    between atoms: _152  and  _155
REMARK   58  A    between atoms: _155  and  _156
REMARK   59  A    between atoms: _156  and  _157
REMARK   60  A    between atoms: _163  and  _164
REMARK   61  A    between atoms: _169  and  _171
REMARK   62  A    between atoms: _171  and  _172
REMARK   63  A    between atoms: _171  and  _174
REMARK   64  A    between atoms: _174  and  _175
REMARK   65  A    between atoms: _178  and  _180
REMARK   66  A    between atoms: _180  and  _181
REMARK   67  A    between atoms: _180  and  _183
REMARK   68  A    between atoms: _183  and  _184
REMARK   69  A    between atoms: _189  and  _190
REMARK   70  A    between atoms: _192  and  _194
REMARK   71  A    between atoms: _194  and  _195
REMARK   72  A    between atoms: _194  and  _197
REMARK   73  A    between atoms: _197  and  _198
REMARK   74  A    between atoms: _201  and  _203
REMARK   75  A    between atoms: _203  and  _204
REMARK   76  A    between atoms: _203  and  _206
REMARK   77  A    between atoms: _206  and  _207
REMARK   78  A    between atoms: _212  and  _214
REMARK   79  A    between atoms: _214  and  _215
REMARK   80  A    between atoms: _218  and  _220
REMARK   81  A    between atoms: _220  and  _221
REMARK   82  A    between atoms: _220  and  _223
REMARK   83  A    between atoms: _223  and  _224
REMARK   84  A    between atoms: _224  and  _225
REMARK   85  A    between atoms: _228  and  _230
REMARK   86  A    between atoms: _230  and  _231
REMARK   87  A    between atoms: _230  and  _233
REMARK   88  A    between atoms: _233  and  _234
REMARK   89  A    between atoms: _237  and  _239
REMARK   90  A    between atoms: _239  and  _240
REMARK   91  A    between atoms: _239  and  _242
REMARK   92  A    between atoms: _242  and  _243
REMARK   93  A    between atoms: _246  and  _248
REMARK   94  A    between atoms: _248  and  _249
REMARK   95  A    between atoms: _248  and  _251
REMARK   96  A    between atoms: _251  and  _252
REMARK   97  A    between atoms: _252  and  _253
REMARK   98  A    between atoms: _258  and  _260
REMARK   99  A    between atoms: _260  and  _261
REMARK  100  A    between atoms: _260  and  _263
REMARK  101  A    between atoms: _263  and  _264
REMARK  102  A    between atoms: _264  and  _265
REMARK  103  A    between atoms: _268  and  _270
REMARK  104  A    between atoms: _270  and  _271
REMARK  105  A    between atoms: _270  and  _273
REMARK  106  A    between atoms: _273  and  _274
REMARK  107  A    between atoms: _274  and  _275
REMARK  108  A    between atoms: _275  and  _276
REMARK  109  A    between atoms: _285  and  _287
REMARK  110  A    between atoms: _287  and  _288
REMARK  111  A    between atoms: _287  and  _290
REMARK  112  A    between atoms: _293  and  _295
REMARK  113  A    between atoms: _295  and  _296
REMARK  114  A    between atoms: _295  and  _298
REMARK  115  A    between atoms: _298  and  _299
REMARK  116  A    between atoms: _299  and  _300
REMARK  117  A    between atoms: _300  and  _301
REMARK  118  A    between atoms: _310  and  _312
REMARK  119  A    between atoms: _312  and  _313
REMARK  120  A    between atoms: _312  and  _315
REMARK  121  A    between atoms: _315  and  _316
REMARK  122  A    between atoms: _316  and  _317
REMARK  123  A    between atoms: _317  and  _318
REMARK  124  A    between atoms: _318  and  _319
REMARK  125  A    between atoms: _323  and  _325
REMARK  126  A    between atoms: _325  and  _326
REMARK  127  A    between atoms: _329  and  _331
REMARK  128  A    between atoms: _331  and  _332
REMARK  129  A    between atoms: _331  and  _334
REMARK  130  A    between atoms: _334  and  _335
REMARK  131  A    between atoms: _335  and  _336
REMARK  132  A    between atoms: _339  and  _341
REMARK  133  A    between atoms: _341  and  _342
REMARK  134  A    between atoms: _341  and  _344
REMARK  135  A    between atoms: _344  and  _345
REMARK  136  A    between atoms: _345  and  _346
REMARK  137  A    between atoms: _346  and  _347
REMARK  138  A    between atoms: _356  and  _358
REMARK  139  A    between atoms: _358  and  _359
REMARK  140  A    between atoms: _358  and  _361
REMARK  141  A    between atoms: _361  and  _362
REMARK  142  A    between atoms: _372  and  _374
REMARK  143  A    between atoms: _374  and  _375
REMARK  144  A    between atoms: _378  and  _379
REMARK  145  A    between atoms: _384  and  _386
REMARK  146  A    between atoms: _386  and  _387
REMARK  147  A    between atoms: _386  and  _389
REMARK  148  A    between atoms: _389  and  _390
REMARK  149  A    between atoms: _390  and  _391
REMARK  150  A    between atoms: _391  and  _392
REMARK  151  A    between atoms: _401  and  _403
REMARK  152  A    between atoms: _403  and  _404
REMARK  153  A    between atoms: _403  and  _406
REMARK  154  A    between atoms: _406  and  _407
REMARK  155  A    between atoms: _410  and  _412
REMARK  156  A    between atoms: _412  and  _413
REMARK  157  A    between atoms: _412  and  _415
REMARK  158  A    between atoms: _415  and  _416
REMARK  159  A    between atoms: _419  and  _421
REMARK  160  A    between atoms: _421  and  _422
REMARK  161  A    between atoms: _421  and  _424
REMARK  162  A    between atoms: _424  and  _425
REMARK  163  A    between atoms: _428  and  _430
REMARK  164  A    between atoms: _430  and  _431
REMARK  165  A    between atoms: _430  and  _433
REMARK  166  A    between atoms: _433  and  _434
REMARK  167  A    between atoms: _437  and  _439
REMARK  168  A    between atoms: _439  and  _440
REMARK  169  A    between atoms: _439  and  _442
REMARK  170  A    between atoms: _442  and  _443
REMARK  171  A    between atoms: _446  and  _448
REMARK  172  A    between atoms: _448  and  _449
REMARK  173  A    between atoms: _448  and  _451
REMARK  174  A    between atoms: _451  and  _452
REMARK  175  A    between atoms: _452  and  _453
REMARK  176  A    between atoms: _455  and  _457
REMARK  177  A    between atoms: _457  and  _458
REMARK  178  A    between atoms: _457  and  _460
REMARK  179  A    between atoms: _460  and  _461
REMARK  180  A    between atoms: _464  and  _466
REMARK  181  A    between atoms: _466  and  _467
REMARK  182  A    between atoms: _466  and  _469
REMARK  183  A    between atoms: _469  and  _470
REMARK  184  A    between atoms: _476  and  _478
REMARK  185  A    between atoms: _478  and  _479
REMARK  186  A    between atoms: _478  and  _481
REMARK  187  A    between atoms: _481  and  _482
REMARK  188  A    between atoms: _485  and  _487
REMARK  189  A    between atoms: _487  and  _488
REMARK  190  A    between atoms: _487  and  _490
REMARK  191  A    between atoms: _490  and  _491
REMARK  192  A    between atoms: _496  and  _498
REMARK  193  A    between atoms: _498  and  _499
REMARK  194  A    between atoms: _498  and  _501
REMARK  195  A    between atoms: _501  and  _502
REMARK  196  A    between atoms: _505  and  _507
REMARK  197  A    between atoms: _507  and  _508
REMARK  198  A    between atoms: _507  and  _510
REMARK  199  A    between atoms: _510  and  _511
REMARK  200  A    between atoms: _511  and  _512
REMARK  201  A    between atoms: _515  and  _517
REMARK  202  A    between atoms: _517  and  _518
REMARK  203  A    between atoms: _517  and  _520
REMARK  204  A    between atoms: _520  and  _521
REMARK  205  A    between atoms: _521  and  _522
REMARK  206  A    between atoms: _522  and  _523
REMARK  207  A    between atoms: _532  and  _534
REMARK  208  A    between atoms: _534  and  _535
REMARK  209  A    between atoms: _534  and  _537
REMARK  210  A    between atoms: _537  and  _538
REMARK  211  A    between atoms: _541  and  _543
REMARK  212  A    between atoms: _543  and  _544
REMARK  213  A    between atoms: _543  and  _546
REMARK  214  A    between atoms: _546  and  _547
REMARK  215  A    between atoms: _550  and  _552
REMARK  216  A    between atoms: _552  and  _553
REMARK  217  A    between atoms: _552  and  _555
REMARK  218  A    between atoms: _559  and  _560
REMARK  219  A    between atoms: _565  and  _567
REMARK  220  A    between atoms: _567  and  _568
REMARK  221  A    between atoms: _567  and  _570
REMARK  222  A    between atoms: _570  and  _571
REMARK  223  A    between atoms: _576  and  _578
REMARK  224  A    between atoms: _578  and  _579
REMARK  225  A    between atoms: _578  and  _581
REMARK  226  A    between atoms: _581  and  _582
REMARK  227  A    between atoms: _587  and  _588
REMARK  228  A    between atoms: _590  and  _592
REMARK  229  A    between atoms: _592  and  _593
REMARK  230  A    between atoms: _592  and  _595
REMARK  231  A    between atoms: _595  and  _596
REMARK  232  A    between atoms: _599  and  _601
REMARK  233  A    between atoms: _601  and  _602
REMARK  234  A    between atoms: _601  and  _604
REMARK  235  A    between atoms: _604  and  _605
REMARK  236  A    between atoms: _605  and  _606
REMARK  237  A    between atoms: _608  and  _610
REMARK  238  A    between atoms: _610  and  _611
REMARK  239  A    between atoms: _610  and  _613
REMARK  240  A    between atoms: _613  and  _614
REMARK  241  A    between atoms: _614  and  _615
REMARK  242  A    between atoms: _615  and  _616
REMARK  243  A    between atoms: _625  and  _627
REMARK  244  A    between atoms: _627  and  _628
REMARK  245  A    between atoms: _630  and  _632
REMARK  246  A    between atoms: _632  and  _633
REMARK  247  A    between atoms: _632  and  _635
REMARK  248  A    between atoms: _635  and  _636
REMARK  249  A    between atoms: _642  and  _644
REMARK  250  A    between atoms: _644  and  _645
REMARK  251  A    between atoms: _644  and  _647
REMARK  252  A    between atoms: _647  and  _648
REMARK  253  A    between atoms: _648  and  _649
REMARK  254  A    between atoms: _651  and  _653
REMARK  255  A    between atoms: _653  and  _654
REMARK  256  A    between atoms: _653  and  _656
REMARK  257  A    between atoms: _656  and  _657
REMARK                            x       y       z     vdW  Elec       q    Type
REMARK                         _______ _______ _______ _____ _____    ______ ____
ROOT
ATOM      1  O   HOH     1       3.496  23.594  30.279  0.00  0.00    +0.000 OA
ENDROOT
TORSDOF 0
REMARK  Name = ../refined-set-2016/1ex8/1ex8_pocket.pdb
REMARK  257 active torsions:
REMARK  status: ('A' for Active; 'I' for Inactive)
REMARK    1  A    between atoms: _1  and  _3
REMARK    2  A    between atoms: _3  and  _4
REMARK    3  A    between atoms: _3  and  _6
REMARK    4  A    between atoms: _6  and  _7
REMARK    5  A    between atoms: _12  and  _13
REMARK    6  A    between atoms: _15  and  _17
REMARK    7  A    between atoms: _17  and  _18
REMARK    8  A    between atoms: _17  and  _20
REMARK    9  A    between atoms: _20  and  _21
REMARK   10  A    between atoms: _24  and  _26
REMARK   11  A    between atoms: _26  and  _27
REMARK   12  A    between atoms: _30  and  _32
REMARK   13  A    between atoms: _32  and  _33
REMARK   14  A    between atoms: _32  and  _35
REMARK   15  A    between atoms: _35  and  _36
REMARK   16  A    between atoms: _39  and  _41
REMARK   17  A    between atoms: _41  and  _42
REMARK   18  A    between atoms: _44  and  _46
REMARK   19  A    between atoms: _46  and  _47
REMARK   20  A    between atoms: _46  and  _49
REMARK   21  A    between atoms: _49  and  _50
REMARK   22  A    between atoms: _52  and  _54
REMARK   23  A    between atoms: _54  and  _55
REMARK   24  A    between atoms: _54  and  _57
REMARK   25  A    between atoms: _57  and  _58
REMARK   26  A    between atoms: _63  and  _65
REMARK   27  A    between atoms: _65  and  _66
REMARK   28  A    between atoms: _65  and  _68
REMARK   29  A    between atoms: _68  and  _69
REMARK   30  A    between atoms: _74  and  _75
REMARK   31  A    between atoms: _77  and  _79
REMARK   32  A    between atoms: _79  and  _80
REMARK   33  A    between atoms: _79  and  _82
REMARK   34  A    between atoms: _82  and  _83
REMARK   35  A    between atoms: _83  and  _84
REMARK   36  A    between atoms: _84  and  _85
REMARK   37  A    between atoms: _94  and  _96
REMARK   38  A    between atoms: _96  and  _97
REMARK   39  A    between atoms: _96  and  _99
REMARK   40  A    between atoms: _99  and  _100
REMARK   41  A    between atoms: _104  and  _105
REMARK   42  A    between atoms: _111  and  _112
REMARK   43  A    between atoms: _117  and  _119
REMARK   44  A    between atoms: _119  and  _120
REMARK   45  A    between atoms: _119  and  _122
REMARK   46  A    between atoms: _122  and  _123
REMARK   47  A    between atoms: _126  and  _128
REMARK   48  A    between atoms: _128  and  _129
REMARK   49  A    between atoms: _132  and  _133
REMARK   50  A    between atoms: _138  and  _140
REMARK   51  A    between atoms: _140  and  _141
REMARK   52  A    between atoms: _140  and  _143
REMARK   53  A    between atoms: _143  and  _144
REMARK   54  A    between atoms: _144  and  _145
REMARK   55  A    between atoms: _150  and  _152
REMARK   56  A    between atoms: _152  and  _153
REMARK   57  A    between atoms: _152  and  _155
REMARK   58  A    between atoms: _155  and  _156
REMARK   59  A    between atoms: _156  and  _157
REMARK   60  A    between atoms: _163  and  _164
REMARK   61  A    between atoms: _169  and  _171
REMARK   62  A    between atoms: _171  and  _172
REMARK   63  A    between atoms: _171  and  _174
REMARK   64  A    between atoms: _174  and  _175
REMARK   65  A    between atoms: _178  and  _180
REMARK   66  A    between atoms: _180  and  _181
REMARK   67  A    between atoms: _180  and  _183
REMARK   68  A    between atoms: _183  and  _184
REMARK   69  A    between atoms: _189  and  _190
REMARK   70  A    between atoms: _192  and  _194
REMARK   71  A    between atoms: _194  and  _195
REMARK   72  A    between atoms: _194  and  _197
REMARK   73  A    between atoms: _197  and  _198
REMARK   74  A    between atoms: _201  and  _203
REMARK   75  A    between atoms: _203  and  _204
REMARK   76  A    between atoms: _203  and  _206
REMARK   77  A    between atoms: _206  and  _207
REMARK   78  A    between atoms: _212  and  _214
REMARK   79  A    between atoms: _214  and  _215
REMARK   80  A    between atoms: _218  and  _220
REMARK   81  A    between atoms: _220  and  _221
REMARK   82  A    between atoms: _220  and  _223
REMARK   83  A    between atoms: _223  and  _224
REMARK   84  A    between atoms: _224  and  _225
REMARK   85  A    between atoms: _228  and  _230
REMARK   86  A    between atoms: _230  and  _231
REMARK   87  A    between atoms: _230  and  _233
REMARK   88  A    between atoms: _233  and  _234
REMARK   89  A    between atoms: _237  and  _239
REMARK   90  A    between atoms: _239  and  _240
REMARK   91  A    between atoms: _239  and  _242
REMARK   92  A    between atoms: _242  and  _243
REMARK   93  A    between atoms: _246  and  _248
REMARK   94  A    between atoms: _248  and  _249
REMARK   95  A    between atoms: _248  and  _251
REMARK   96  A    between atoms: _251  and  _252
REMARK   97  A    between atoms: _252  and  _253
REMARK   98  A    between atoms: _258  and  _260
REMARK   99  A    between atoms: _260  and  _261
REMARK  100  A    between atoms: _260  and  _263
REMARK  101  A    between atoms: _263  and  _264
REMARK  102  A    between atoms: _264  and  _265
REMARK  103  A    between atoms: _268  and  _270
REMARK  104  A    between atoms: _270  and  _271
REMARK  105  A    between atoms: _270  and  _273
REMARK  106  A    between atoms: _273  and  _274
REMARK  107  A    between atoms: _274  and  _275
REMARK  108  A    between atoms: _275  and  _276
REMARK  109  A    between atoms: _285  and  _287
REMARK  110  A    between atoms: _287  and  _288
REMARK  111  A    between atoms: _287  and  _290
REMARK  112  A    between atoms: _293  and  _295
REMARK  113  A    between atoms: _295  and  _296
REMARK  114  A    between atoms: _295  and  _298
REMARK  115  A    between atoms: _298  and  _299
REMARK  116  A    between atoms: _299  and  _300
REMARK  117  A    between atoms: _300  and  _301
REMARK  118  A    between atoms: _310  and  _312
REMARK  119  A    between atoms: _312  and  _313
REMARK  120  A    between atoms: _312  and  _315
REMARK  121  A    between atoms: _315  and  _316
REMARK  122  A    between atoms: _316  and  _317
REMARK  123  A    between atoms: _317  and  _318
REMARK  124  A    between atoms: _318  and  _319
REMARK  125  A    between atoms: _323  and  _325
REMARK  126  A    between atoms: _325  and  _326
REMARK  127  A    between atoms: _329  and  _331
REMARK  128  A    between atoms: _331  and  _332
REMARK  129  A    between atoms: _331  and  _334
REMARK  130  A    between atoms: _334  and  _335
REMARK  131  A    between atoms: _335  and  _336
REMARK  132  A    between atoms: _339  and  _341
REMARK  133  A    between atoms: _341  and  _342
REMARK  134  A    between atoms: _341  and  _344
REMARK  135  A    between atoms: _344  and  _345
REMARK  136  A    between atoms: _345  and  _346
REMARK  137  A    between atoms: _346  and  _347
REMARK  138  A    between atoms: _356  and  _358
REMARK  139  A    between atoms: _358  and  _359
REMARK  140  A    between atoms: _358  and  _361
REMARK  141  A    between atoms: _361  and  _362
REMARK  142  A    between atoms: _372  and  _374
REMARK  143  A    between atoms: _374  and  _375
REMARK  144  A    between atoms: _378  and  _379
REMARK  145  A    between atoms: _384  and  _386
REMARK  146  A    between atoms: _386  and  _387
REMARK  147  A    between atoms: _386  and  _389
REMARK  148  A    between atoms: _389  and  _390
REMARK  149  A    between atoms: _390  and  _391
REMARK  150  A    between atoms: _391  and  _392
REMARK  151  A    between atoms: _401  and  _403
REMARK  152  A    between atoms: _403  and  _404
REMARK  153  A    between atoms: _403  and  _406
REMARK  154  A    between atoms: _406  and  _407
REMARK  155  A    between atoms: _410  and  _412
REMARK  156  A    between atoms: _412  and  _413
REMARK  157  A    between atoms: _412  and  _415
REMARK  158  A    between atoms: _415  and  _416
REMARK  159  A    between atoms: _419  and  _421
REMARK  160  A    between atoms: _421  and  _422
REMARK  161  A    between atoms: _421  and  _424
REMARK  162  A    between atoms: _424  and  _425
REMARK  163  A    between atoms: _428  and  _430
REMARK  164  A    between atoms: _430  and  _431
REMARK  165  A    between atoms: _430  and  _433
REMARK  166  A    between atoms: _433  and  _434
REMARK  167  A    between atoms: _437  and  _439
REMARK  168  A    between atoms: _439  and  _440
REMARK  169  A    between atoms: _439  and  _442
REMARK  170  A    between atoms: _442  and  _443
REMARK  171  A    between atoms: _446  and  _448
REMARK  172  A    between atoms: _448  and  _449
REMARK  173  A    between atoms: _448  and  _451
REMARK  174  A    between atoms: _451  and  _452
REMARK  175  A    between atoms: _452  and  _453
REMARK  176  A    between atoms: _455  and  _457
REMARK  177  A    between atoms: _457  and  _458
REMARK  178  A    between atoms: _457  and  _460
REMARK  179  A    between atoms: _460  and  _461
REMARK  180  A    between atoms: _464  and  _466
REMARK  181  A    between atoms: _466  and  _467
REMARK  182  A    between atoms: _466  and  _469
REMARK  183  A    between atoms: _469  and  _470
REMARK  184  A    between atoms: _476  and  _478
REMARK  185  A    between atoms: _478  and  _479
REMARK  186  A    between atoms: _478  and  _481
REMARK  187  A    between atoms: _481  and  _482
REMARK  188  A    between atoms: _485  and  _487
REMARK  189  A    between atoms: _487  and  _488
REMARK  190  A    between atoms: _487  and  _490
REMARK  191  A    between atoms: _490  and  _491
REMARK  192  A    between atoms: _496  and  _498
REMARK  193  A    between atoms: _498  and  _499
REMARK  194  A    between atoms: _498  and  _501
REMARK  195  A    between atoms: _501  and  _502
REMARK  196  A    between atoms: _505  and  _507
REMARK  197  A    between atoms: _507  and  _508
REMARK  198  A    between atoms: _507  and  _510
REMARK  199  A    between atoms: _510  and  _511
REMARK  200  A    between atoms: _511  and  _512
REMARK  201  A    between atoms: _515  and  _517
REMARK  202  A    between atoms: _517  and  _518
REMARK  203  A    between atoms: _517  and  _520
REMARK  204  A    between atoms: _520  and  _521
REMARK  205  A    between atoms: _521  and  _522
REMARK  206  A    between atoms: _522  and  _523
REMARK  207  A    between atoms: _532  and  _534
REMARK  208  A    between atoms: _534  and  _535
REMARK  209  A    between atoms: _534  and  _537
REMARK  210  A    between atoms: _537  and  _538
REMARK  211  A    between atoms: _541  and  _543
REMARK  212  A    between atoms: _543  and  _544
REMARK  213  A    between atoms: _543  and  _546
REMARK  214  A    between atoms: _546  and  _547
REMARK  215  A    between atoms: _550  and  _552
REMARK  216  A    between atoms: _552  and  _553
REMARK  217  A    between atoms: _552  and  _555
REMARK  218  A    between atoms: _559  and  _560
REMARK  219  A    between atoms: _565  and  _567
REMARK  220  A    between atoms: _567  and  _568
REMARK  221  A    between atoms: _567  and  _570
REMARK  222  A    between atoms: _570  and  _571
REMARK  223  A    between atoms: _576  and  _578
REMARK  224  A    between atoms: _578  and  _579
REMARK  225  A    between atoms: _578  and  _581
REMARK  226  A    between atoms: _581  and  _582
REMARK  227  A    between atoms: _587  and  _588
REMARK  228  A    between atoms: _590  and  _592
REMARK  229  A    between atoms: _592  and  _593
REMARK  230  A    between atoms: _592  and  _595
REMARK  231  A    between atoms: _595  and  _596
REMARK  232  A    between atoms: _599  and  _601
REMARK  233  A    between atoms: _601  and  _602
REMARK  234  A    between atoms: _601  and  _604
REMARK  235  A    between atoms: _604  and  _605
REMARK  236  A    between atoms: _605  and  _606
REMARK  237  A    between atoms: _608  and  _610
REMARK  238  A    between atoms: _610  and  _611
REMARK  239  A    between atoms: _610  and  _613
REMARK  240  A    between atoms: _613  and  _614
REMARK  241  A    between atoms: _614  and  _615
REMARK  242  A    between atoms: _615  and  _616
REMARK  243  A    between atoms: _625  and  _627
REMARK  244  A    between atoms: _627  and  _628
REMARK  245  A    between atoms: _630  and  _632
REMARK  246  A    between atoms: _632  and  _633
REMARK  247  A    between atoms: _632  and  _635
REMARK  248  A    between atoms: _635  and  _636
REMARK  249  A    between atoms: _642  and  _644
REMARK  250  A    between atoms: _644  and  _645
REMARK  251  A    between atoms: _644  and  _647
REMARK  252  A    between atoms: _647  and  _648
REMARK  253  A    between atoms: _648  and  _649
REMARK  254  A    between atoms: _651  and  _653
REMARK  255  A    between atoms: _653  and  _654
REMARK  256  A    between atoms: _653  and  _656
REMARK  257  A    between atoms: _656  and  _657
REMARK                            x       y       z     vdW  Elec       q    Type
REMARK                         _______ _______ _______ _____ _____    ______ ____
ROOT
ATOM      1  O   HOH     1       0.176  23.728  24.435  0.00  0.00    +0.000 OA
ENDROOT
TORSDOF 0
REMARK  Name = ../refined-set-2016/1ex8/1ex8_pocket.pdb
REMARK  257 active torsions:
REMARK  status: ('A' for Active; 'I' for Inactive)
REMARK    1  A    between atoms: _1  and  _3
REMARK    2  A    between atoms: _3  and  _4
REMARK    3  A    between atoms: _3  and  _6
REMARK    4  A    between atoms: _6  and  _7
REMARK    5  A    between atoms: _12  and  _13
REMARK    6  A    between atoms: _15  and  _17
REMARK    7  A    between atoms: _17  and  _18
REMARK    8  A    between atoms: _17  and  _20
REMARK    9  A    between atoms: _20  and  _21
REMARK   10  A    between atoms: _24  and  _26
REMARK   11  A    between atoms: _26  and  _27
REMARK   12  A    between atoms: _30  and  _32
REMARK   13  A    between atoms: _32  and  _33
REMARK   14  A    between atoms: _32  and  _35
REMARK   15  A    between atoms: _35  and  _36
REMARK   16  A    between atoms: _39  and  _41
REMARK   17  A    between atoms: _41  and  _42
REMARK   18  A    between atoms: _44  and  _46
REMARK   19  A    between atoms: _46  and  _47
REMARK   20  A    between atoms: _46  and  _49
REMARK   21  A    between atoms: _49  and  _50
REMARK   22  A    between atoms: _52  and  _54
REMARK   23  A    between atoms: _54  and  _55
REMARK   24  A    between atoms: _54  and  _57
REMARK   25  A    between atoms: _57  and  _58
REMARK   26  A    between atoms: _63  and  _65
REMARK   27  A    between atoms: _65  and  _66
REMARK   28  A    between atoms: _65  and  _68
REMARK   29  A    between atoms: _68  and  _69
REMARK   30  A    between atoms: _74  and  _75
REMARK   31  A    between atoms: _77  and  _79
REMARK   32  A    between atoms: _79  and  _80
REMARK   33  A    between atoms: _79  and  _82
REMARK   34  A    between atoms: _82  and  _83
REMARK   35  A    between atoms: _83  and  _84
REMARK   36  A    between atoms: _84  and  _85
REMARK   37  A    between atoms: _94  and  _96
REMARK   38  A    between atoms: _96  and  _97
REMARK   39  A    between atoms: _96  and  _99
REMARK   40  A    between atoms: _99  and  _100
REMARK   41  A    between atoms: _104  and  _105
REMARK   42  A    between atoms: _111  and  _112
REMARK   43  A    between atoms: _117  and  _119
REMARK   44  A    between atoms: _119  and  _120
REMARK   45  A    between atoms: _119  and  _122
REMARK   46  A    between atoms: _122  and  _123
REMARK   47  A    between atoms: _126  and  _128
REMARK   48  A    between atoms: _128  and  _129
REMARK   49  A    between atoms: _132  and  _133
REMARK   50  A    between atoms: _138  and  _140
REMARK   51  A    between atoms: _140  and  _141
REMARK   52  A    between atoms: _140  and  _143
REMARK   53  A    between atoms: _143  and  _144
REMARK   54  A    between atoms: _144  and  _145
REMARK   55  A    between atoms: _150  and  _152
REMARK   56  A    between atoms: _152  and  _153
REMARK   57  A    between atoms: _152  and  _155
REMARK   58  A    between atoms: _155  and  _156
REMARK   59  A    between atoms: _156  and  _157
REMARK   60  A    between atoms: _163  and  _164
REMARK   61  A    between atoms: _169  and  _171
REMARK   62  A    between atoms: _171  and  _172
REMARK   63  A    between atoms: _171  and  _174
REMARK   64  A    between atoms: _174  and  _175
REMARK   65  A    between atoms: _178  and  _180
REMARK   66  A    between atoms: _180  and  _181
REMARK   67  A    between atoms: _180  and  _183
REMARK   68  A    between atoms: _183  and  _184
REMARK   69  A    between atoms: _189  and  _190
REMARK   70  A    between atoms: _192  and  _194
REMARK   71  A    between atoms: _194  and  _195
REMARK   72  A    between atoms: _194  and  _197
REMARK   73  A    between atoms: _197  and  _198
REMARK   74  A    between atoms: _201  and  _203
REMARK   75  A    between atoms: _203  and  _204
REMARK   76  A    between atoms: _203  and  _206
REMARK   77  A    between atoms: _206  and  _207
REMARK   78  A    between atoms: _212  and  _214
REMARK   79  A    between atoms: _214  and  _215
REMARK   80  A    between atoms: _218  and  _220
REMARK   81  A    between atoms: _220  and  _221
REMARK   82  A    between atoms: _220  and  _223
REMARK   83  A    between atoms: _223  and  _224
REMARK   84  A    between atoms: _224  and  _225
REMARK   85  A    between atoms: _228  and  _230
REMARK   86  A    between atoms: _230  and  _231
REMARK   87  A    between atoms: _230  and  _233
REMARK   88  A    between atoms: _233  and  _234
REMARK   89  A    between atoms: _237  and  _239
REMARK   90  A    between atoms: _239  and  _240
REMARK   91  A    between atoms: _239  and  _242
REMARK   92  A    between atoms: _242  and  _243
REMARK   93  A    between atoms: _246  and  _248
REMARK   94  A    between atoms: _248  and  _249
REMARK   95  A    between atoms: _248  and  _251
REMARK   96  A    between atoms: _251  and  _252
REMARK   97  A    between atoms: _252  and  _253
REMARK   98  A    between atoms: _258  and  _260
REMARK   99  A    between atoms: _260  and  _261
REMARK  100  A    between atoms: _260  and  _263
REMARK  101  A    between atoms: _263  and  _264
REMARK  102  A    between atoms: _264  and  _265
REMARK  103  A    between atoms: _268  and  _270
REMARK  104  A    between atoms: _270  and  _271
REMARK  105  A    between atoms: _270  and  _273
REMARK  106  A    between atoms: _273  and  _274
REMARK  107  A    between atoms: _274  and  _275
REMARK  108  A    between atoms: _275  and  _276
REMARK  109  A    between atoms: _285  and  _287
REMARK  110  A    between atoms: _287  and  _288
REMARK  111  A    between atoms: _287  and  _290
REMARK  112  A    between atoms: _293  and  _295
REMARK  113  A    between atoms: _295  and  _296
REMARK  114  A    between atoms: _295  and  _298
REMARK  115  A    between atoms: _298  and  _299
REMARK  116  A    between atoms: _299  and  _300
REMARK  117  A    between atoms: _300  and  _301
REMARK  118  A    between atoms: _310  and  _312
REMARK  119  A    between atoms: _312  and  _313
REMARK  120  A    between atoms: _312  and  _315
REMARK  121  A    between atoms: _315  and  _316
REMARK  122  A    between atoms: _316  and  _317
REMARK  123  A    between atoms: _317  and  _318
REMARK  124  A    between atoms: _318  and  _319
REMARK  125  A    between atoms: _323  and  _325
REMARK  126  A    between atoms: _325  and  _326
REMARK  127  A    between atoms: _329  and  _331
REMARK  128  A    between atoms: _331  and  _332
REMARK  129  A    between atoms: _331  and  _334
REMARK  130  A    between atoms: _334  and  _335
REMARK  131  A    between atoms: _335  and  _336
REMARK  132  A    between atoms: _339  and  _341
REMARK  133  A    between atoms: _341  and  _342
REMARK  134  A    between atoms: _341  and  _344
REMARK  135  A    between atoms: _344  and  _345
REMARK  136  A    between atoms: _345  and  _346
REMARK  137  A    between atoms: _346  and  _347
REMARK  138  A    between atoms: _356  and  _358
REMARK  139  A    between atoms: _358  and  _359
REMARK  140  A    between atoms: _358  and  _361
REMARK  141  A    between atoms: _361  and  _362
REMARK  142  A    between atoms: _372  and  _374
REMARK  143  A    between atoms: _374  and  _375
REMARK  144  A    between atoms: _378  and  _379
REMARK  145  A    between atoms: _384  and  _386
REMARK  146  A    between atoms: _386  and  _387
REMARK  147  A    between atoms: _386  and  _389
REMARK  148  A    between atoms: _389  and  _390
REMARK  149  A    between atoms: _390  and  _391
REMARK  150  A    between atoms: _391  and  _392
REMARK  151  A    between atoms: _401  and  _403
REMARK  152  A    between atoms: _403  and  _404
REMARK  153  A    between atoms: _403  and  _406
REMARK  154  A    between atoms: _406  and  _407
REMARK  155  A    between atoms: _410  and  _412
REMARK  156  A    between atoms: _412  and  _413
REMARK  157  A    between atoms: _412  and  _415
REMARK  158  A    between atoms: _415  and  _416
REMARK  159  A    between atoms: _419  and  _421
REMARK  160  A    between atoms: _421  and  _422
REMARK  161  A    between atoms: _421  and  _424
REMARK  162  A    between atoms: _424  and  _425
REMARK  163  A    between atoms: _428  and  _430
REMARK  164  A    between atoms: _430  and  _431
REMARK  165  A    between atoms: _430  and  _433
REMARK  166  A    between atoms: _433  and  _434
REMARK  167  A    between atoms: _437  and  _439
REMARK  168  A    between atoms: _439  and  _440
REMARK  169  A    between atoms: _439  and  _442
REMARK  170  A    between atoms: _442  and  _443
REMARK  171  A    between atoms: _446  and  _448
REMARK  172  A    between atoms: _448  and  _449
REMARK  173  A    between atoms: _448  and  _451
REMARK  174  A    between atoms: _451  and  _452
REMARK  175  A    between atoms: _452  and  _453
REMARK  176  A    between atoms: _455  and  _457
REMARK  177  A    between atoms: _457  and  _458
REMARK  178  A    between atoms: _457  and  _460
REMARK  179  A    between atoms: _460  and  _461
REMARK  180  A    between atoms: _464  and  _466
REMARK  181  A    between atoms: _466  and  _467
REMARK  182  A    between atoms: _466  and  _469
REMARK  183  A    between atoms: _469  and  _470
REMARK  184  A    between atoms: _476  and  _478
REMARK  185  A    between atoms: _478  and  _479
REMARK  186  A    between atoms: _478  and  _481
REMARK  187  A    between atoms: _481  and  _482
REMARK  188  A    between atoms: _485  and  _487
REMARK  189  A    between atoms: _487  and  _488
REMARK  190  A    between atoms: _487  and  _490
REMARK  191  A    between atoms: _490  and  _491
REMARK  192  A    between atoms: _496  and  _498
REMARK  193  A    between atoms: _498  and  _499
REMARK  194  A    between atoms: _498  and  _501
REMARK  195  A    between atoms: _501  and  _502
REMARK  196  A    between atoms: _505  and  _507
REMARK  197  A    between atoms: _507  and  _508
REMARK  198  A    between atoms: _507  and  _510
REMARK  199  A    between atoms: _510  and  _511
REMARK  200  A    between atoms: _511  and  _512
REMARK  201  A    between atoms: _515  and  _517
REMARK  202  A    between atoms: _517  and  _518
REMARK  203  A    between atoms: _517  and  _520
REMARK  204  A    between atoms: _520  and  _521
REMARK  205  A    between atoms: _521  and  _522
REMARK  206  A    between atoms: _522  and  _523
REMARK  207  A    between atoms: _532  and  _534
REMARK  208  A    between atoms: _534  and  _535
REMARK  209  A    between atoms: _534  and  _537
REMARK  210  A    between atoms: _537  and  _538
REMARK  211  A    between atoms: _541  and  _543
REMARK  212  A    between atoms: _543  and  _544
REMARK  213  A    between atoms: _543  and  _546
REMARK  214  A    between atoms: _546  and  _547
REMARK  215  A    between atoms: _550  and  _552
REMARK  216  A    between atoms: _552  and  _553
REMARK  217  A    between atoms: _552  and  _555
REMARK  218  A    between atoms: _559  and  _560
REMARK  219  A    between atoms: _565  and  _567
REMARK  220  A    between atoms: _567  and  _568
REMARK  221  A    between atoms: _567  and  _570
REMARK  222  A    between atoms: _570  and  _571
REMARK  223  A    between atoms: _576  and  _578
REMARK  224  A    between atoms: _578  and  _579
REMARK  225  A    between atoms: _578  and  _581
REMARK  226  A    between atoms: _581  and  _582
REMARK  227  A    between atoms: _587  and  _588
REMARK  228  A    between atoms: _590  and  _592
REMARK  229  A    between atoms: _592  and  _593
REMARK  230  A    between atoms: _592  and  _595
REMARK  231  A    between atoms: _595  and  _596
REMARK  232  A    between atoms: _599  and  _601
REMARK  233  A    between atoms: _601  and  _602
REMARK  234  A    between atoms: _601  and  _604
REMARK  235  A    between atoms: _604  and  _605
REMARK  236  A    between atoms: _605  and  _606
REMARK  237  A    between atoms: _608  and  _610
REMARK  238  A    between atoms: _610  and  _611
REMARK  239  A    between atoms: _610  and  _613
REMARK  240  A    between atoms: _613  and  _614
REMARK  241  A    between atoms: _614  and  _615
REMARK  242  A    between atoms: _615  and  _616
REMARK  243  A    between atoms: _625  and  _627
REMARK  244  A    between atoms: _627  and  _628
REMARK  245  A    between atoms: _630  and  _632
REMARK  246  A    between atoms: _632  and  _633
REMARK  247  A    between atoms: _632  and  _635
REMARK  248  A    between atoms: _635  and  _636
REMARK  249  A    between atoms: _642  and  _644
REMARK  250  A    between atoms: _644  and  _645
REMARK  251  A    between atoms: _644  and  _647
REMARK  252  A    between atoms: _647  and  _648
REMARK  253  A    between atoms: _648  and  _649
REMARK  254  A    between atoms: _651  and  _653
REMARK  255  A    between atoms: _653  and  _654
REMARK  256  A    between atoms: _653  and  _656
REMARK  257  A    between atoms: _656  and  _657
REMARK                            x       y       z     vdW  Elec       q    Type
REMARK                         _______ _______ _______ _____ _____    ______ ____
ROOT
ATOM      1  O   HOH     1       5.086  19.420  14.605  0.00  0.00    +0.000 OA
ENDROOT
TORSDOF 0
REMARK  Name = ../refined-set-2016/1ex8/1ex8_pocket.pdb
REMARK  257 active torsions:
REMARK  status: ('A' for Active; 'I' for Inactive)
REMARK    1  A    between atoms: _1  and  _3
REMARK    2  A    between atoms: _3  and  _4
REMARK    3  A    between atoms: _3  and  _6
REMARK    4  A    between atoms: _6  and  _7
REMARK    5  A    between atoms: _12  and  _13
REMARK    6  A    between atoms: _15  and  _17
REMARK    7  A    between atoms: _17  and  _18
REMARK    8  A    between atoms: _17  and  _20
REMARK    9  A    between atoms: _20  and  _21
REMARK   10  A    between atoms: _24  and  _26
REMARK   11  A    between atoms: _26  and  _27
REMARK   12  A    between atoms: _30  and  _32
REMARK   13  A    between atoms: _32  and  _33
REMARK   14  A    between atoms: _32  and  _35
REMARK   15  A    between atoms: _35  and  _36
REMARK   16  A    between atoms: _39  and  _41
REMARK   17  A    between atoms: _41  and  _42
REMARK   18  A    between atoms: _44  and  _46
REMARK   19  A    between atoms: _46  and  _47
REMARK   20  A    between atoms: _46  and  _49
REMARK   21  A    between atoms: _49  and  _50
REMARK   22  A    between atoms: _52  and  _54
REMARK   23  A    between atoms: _54  and  _55
REMARK   24  A    between atoms: _54  and  _57
REMARK   25  A    between atoms: _57  and  _58
REMARK   26  A    between atoms: _63  and  _65
REMARK   27  A    between atoms: _65  and  _66
REMARK   28  A    between atoms: _65  and  _68
REMARK   29  A    between atoms: _68  and  _69
REMARK   30  A    between atoms: _74  and  _75
REMARK   31  A    between atoms: _77  and  _79
REMARK   32  A    between atoms: _79  and  _80
REMARK   33  A    between atoms: _79  and  _82
REMARK   34  A    between atoms: _82  and  _83
REMARK   35  A    between atoms: _83  and  _84
REMARK   36  A    between atoms: _84  and  _85
REMARK   37  A    between atoms: _94  and  _96
REMARK   38  A    between atoms: _96  and  _97
REMARK   39  A    between atoms: _96  and  _99
REMARK   40  A    between atoms: _99  and  _100
REMARK   41  A    between atoms: _104  and  _105
REMARK   42  A    between atoms: _111  and  _112
REMARK   43  A    between atoms: _117  and  _119
REMARK   44  A    between atoms: _119  and  _120
REMARK   45  A    between atoms: _119  and  _122
REMARK   46  A    between atoms: _122  and  _123
REMARK   47  A    between atoms: _126  and  _128
REMARK   48  A    between atoms: _128  and  _129
REMARK   49  A    between atoms: _132  and  _133
REMARK   50  A    between atoms: _138  and  _140
REMARK   51  A    between atoms: _140  and  _141
REMARK   52  A    between atoms: _140  and  _143
REMARK   53  A    between atoms: _143  and  _144
REMARK   54  A    between atoms: _144  and  _145
REMARK   55  A    between atoms: _150  and  _152
REMARK   56  A    between atoms: _152  and  _153
REMARK   57  A    between atoms: _152  and  _155
REMARK   58  A    between atoms: _155  and  _156
REMARK   59  A    between atoms: _156  and  _157
REMARK   60  A    between atoms: _163  and  _164
REMARK   61  A    between atoms: _169  and  _171
REMARK   62  A    between atoms: _171  and  _172
REMARK   63  A    between atoms: _171  and  _174
REMARK   64  A    between atoms: _174  and  _175
REMARK   65  A    between atoms: _178  and  _180
REMARK   66  A    between atoms: _180  and  _181
REMARK   67  A    between atoms: _180  and  _183
REMARK   68  A    between atoms: _183  and  _184
REMARK   69  A    between atoms: _189  and  _190
REMARK   70  A    between atoms: _192  and  _194
REMARK   71  A    between atoms: _194  and  _195
REMARK   72  A    between atoms: _194  and  _197
REMARK   73  A    between atoms: _197  and  _198
REMARK   74  A    between atoms: _201  and  _203
REMARK   75  A    between atoms: _203  and  _204
REMARK   76  A    between atoms: _203  and  _206
REMARK   77  A    between atoms: _206  and  _207
REMARK   78  A    between atoms: _212  and  _214
REMARK   79  A    between atoms: _214  and  _215
REMARK   80  A    between atoms: _218  and  _220
REMARK   81  A    between atoms: _220  and  _221
REMARK   82  A    between atoms: _220  and  _223
REMARK   83  A    between atoms: _223  and  _224
REMARK   84  A    between atoms: _224  and  _225
REMARK   85  A    between atoms: _228  and  _230
REMARK   86  A    between atoms: _230  and  _231
REMARK   87  A    between atoms: _230  and  _233
REMARK   88  A    between atoms: _233  and  _234
REMARK   89  A    between atoms: _237  and  _239
REMARK   90  A    between atoms: _239  and  _240
REMARK   91  A    between atoms: _239  and  _242
REMARK   92  A    between atoms: _242  and  _243
REMARK   93  A    between atoms: _246  and  _248
REMARK   94  A    between atoms: _248  and  _249
REMARK   95  A    between atoms: _248  and  _251
REMARK   96  A    between atoms: _251  and  _252
REMARK   97  A    between atoms: _252  and  _253
REMARK   98  A    between atoms: _258  and  _260
REMARK   99  A    between atoms: _260  and  _261
REMARK  100  A    between atoms: _260  and  _263
REMARK  101  A    between atoms: _263  and  _264
REMARK  102  A    between atoms: _264  and  _265
REMARK  103  A    between atoms: _268  and  _270
REMARK  104  A    between atoms: _270  and  _271
REMARK  105  A    between atoms: _270  and  _273
REMARK  106  A    between atoms: _273  and  _274
REMARK  107  A    between atoms: _274  and  _275
REMARK  108  A    between atoms: _275  and  _276
REMARK  109  A    between atoms: _285  and  _287
REMARK  110  A    between atoms: _287  and  _288
REMARK  111  A    between atoms: _287  and  _290
REMARK  112  A    between atoms: _293  and  _295
REMARK  113  A    between atoms: _295  and  _296
REMARK  114  A    between atoms: _295  and  _298
REMARK  115  A    between atoms: _298  and  _299
REMARK  116  A    between atoms: _299  and  _300
REMARK  117  A    between atoms: _300  and  _301
REMARK  118  A    between atoms: _310  and  _312
REMARK  119  A    between atoms: _312  and  _313
REMARK  120  A    between atoms: _312  and  _315
REMARK  121  A    between atoms: _315  and  _316
REMARK  122  A    between atoms: _316  and  _317
REMARK  123  A    between atoms: _317  and  _318
REMARK  124  A    between atoms: _318  and  _319
REMARK  125  A    between atoms: _323  and  _325
REMARK  126  A    between atoms: _325  and  _326
REMARK  127  A    between atoms: _329  and  _331
REMARK  128  A    between atoms: _331  and  _332
REMARK  129  A    between atoms: _331  and  _334
REMARK  130  A    between atoms: _334  and  _335
REMARK  131  A    between atoms: _335  and  _336
REMARK  132  A    between atoms: _339  and  _341
REMARK  133  A    between atoms: _341  and  _342
REMARK  134  A    between atoms: _341  and  _344
REMARK  135  A    between atoms: _344  and  _345
REMARK  136  A    between atoms: _345  and  _346
REMARK  137  A    between atoms: _346  and  _347
REMARK  138  A    between atoms: _356  and  _358
REMARK  139  A    between atoms: _358  and  _359
REMARK  140  A    between atoms: _358  and  _361
REMARK  141  A    between atoms: _361  and  _362
REMARK  142  A    between atoms: _372  and  _374
REMARK  143  A    between atoms: _374  and  _375
REMARK  144  A    between atoms: _378  and  _379
REMARK  145  A    between atoms: _384  and  _386
REMARK  146  A    between atoms: _386  and  _387
REMARK  147  A    between atoms: _386  and  _389
REMARK  148  A    between atoms: _389  and  _390
REMARK  149  A    between atoms: _390  and  _391
REMARK  150  A    between atoms: _391  and  _392
REMARK  151  A    between atoms: _401  and  _403
REMARK  152  A    between atoms: _403  and  _404
REMARK  153  A    between atoms: _403  and  _406
REMARK  154  A    between atoms: _406  and  _407
REMARK  155  A    between atoms: _410  and  _412
REMARK  156  A    between atoms: _412  and  _413
REMARK  157  A    between atoms: _412  and  _415
REMARK  158  A    between atoms: _415  and  _416
REMARK  159  A    between atoms: _419  and  _421
REMARK  160  A    between atoms: _421  and  _422
REMARK  161  A    between atoms: _421  and  _424
REMARK  162  A    between atoms: _424  and  _425
REMARK  163  A    between atoms: _428  and  _430
REMARK  164  A    between atoms: _430  and  _431
REMARK  165  A    between atoms: _430  and  _433
REMARK  166  A    between atoms: _433  and  _434
REMARK  167  A    between atoms: _437  and  _439
REMARK  168  A    between atoms: _439  and  _440
REMARK  169  A    between atoms: _439  and  _442
REMARK  170  A    between atoms: _442  and  _443
REMARK  171  A    between atoms: _446  and  _448
REMARK  172  A    between atoms: _448  and  _449
REMARK  173  A    between atoms: _448  and  _451
REMARK  174  A    between atoms: _451  and  _452
REMARK  175  A    between atoms: _452  and  _453
REMARK  176  A    between atoms: _455  and  _457
REMARK  177  A    between atoms: _457  and  _458
REMARK  178  A    between atoms: _457  and  _460
REMARK  179  A    between atoms: _460  and  _461
REMARK  180  A    between atoms: _464  and  _466
REMARK  181  A    between atoms: _466  and  _467
REMARK  182  A    between atoms: _466  and  _469
REMARK  183  A    between atoms: _469  and  _470
REMARK  184  A    between atoms: _476  and  _478
REMARK  185  A    between atoms: _478  and  _479
REMARK  186  A    between atoms: _478  and  _481
REMARK  187  A    between atoms: _481  and  _482
REMARK  188  A    between atoms: _485  and  _487
REMARK  189  A    between atoms: _487  and  _488
REMARK  190  A    between atoms: _487  and  _490
REMARK  191  A    between atoms: _490  and  _491
REMARK  192  A    between atoms: _496  and  _498
REMARK  193  A    between atoms: _498  and  _499
REMARK  194  A    between atoms: _498  and  _501
REMARK  195  A    between atoms: _501  and  _502
REMARK  196  A    between atoms: _505  and  _507
REMARK  197  A    between atoms: _507  and  _508
REMARK  198  A    between atoms: _507  and  _510
REMARK  199  A    between atoms: _510  and  _511
REMARK  200  A    between atoms: _511  and  _512
REMARK  201  A    between atoms: _515  and  _517
REMARK  202  A    between atoms: _517  and  _518
REMARK  203  A    between atoms: _517  and  _520
REMARK  204  A    between atoms: _520  and  _521
REMARK  205  A    between atoms: _521  and  _522
REMARK  206  A    between atoms: _522  and  _523
REMARK  207  A    between atoms: _532  and  _534
REMARK  208  A    between atoms: _534  and  _535
REMARK  209  A    between atoms: _534  and  _537
REMARK  210  A    between atoms: _537  and  _538
REMARK  211  A    between atoms: _541  and  _543
REMARK  212  A    between atoms: _543  and  _544
REMARK  213  A    between atoms: _543  and  _546
REMARK  214  A    between atoms: _546  and  _547
REMARK  215  A    between atoms: _550  and  _552
REMARK  216  A    between atoms: _552  and  _553
REMARK  217  A    between atoms: _552  and  _555
REMARK  218  A    between atoms: _559  and  _560
REMARK  219  A    between atoms: _565  and  _567
REMARK  220  A    between atoms: _567  and  _568
REMARK  221  A    between atoms: _567  and  _570
REMARK  222  A    between atoms: _570  and  _571
REMARK  223  A    between atoms: _576  and  _578
REMARK  224  A    between atoms: _578  and  _579
REMARK  225  A    between atoms: _578  and  _581
REMARK  226  A    between atoms: _581  and  _582
REMARK  227  A    between atoms: _587  and  _588
REMARK  228  A    between atoms: _590  and  _592
REMARK  229  A    between atoms: _592  and  _593
REMARK  230  A    between atoms: _592  and  _595
REMARK  231  A    between atoms: _595  and  _596
REMARK  232  A    between atoms: _599  and  _601
REMARK  233  A    between atoms: _601  and  _602
REMARK  234  A    between atoms: _601  and  _604
REMARK  235  A    between atoms: _604  and  _605
REMARK  236  A    between atoms: _605  and  _606
REMARK  237  A    between atoms: _608  and  _610
REMARK  238  A    between atoms: _610  and  _611
REMARK  239  A    between atoms: _610  and  _613
REMARK  240  A    between atoms: _613  and  _614
REMARK  241  A    between atoms: _614  and  _615
REMARK  242  A    between atoms: _615  and  _616
REMARK  243  A    between atoms: _625  and  _627
REMARK  244  A    between atoms: _627  and  _628
REMARK  245  A    between atoms: _630  and  _632
REMARK  246  A    between atoms: _632  and  _633
REMARK  247  A    between atoms: _632  and  _635
REMARK  248  A    between atoms: _635  and  _636
REMARK  249  A    between atoms: _642  and  _644
REMARK  250  A    between atoms: _644  and  _645
REMARK  251  A    between atoms: _644  and  _647
REMARK  252  A    between atoms: _647  and  _648
REMARK  253  A    between atoms: _648  and  _649
REMARK  254  A    between atoms: _651  and  _653
REMARK  255  A    between atoms: _653  and  _654
REMARK  256  A    between atoms: _653  and  _656
REMARK  257  A    between atoms: _656  and  _657
REMARK                            x       y       z     vdW  Elec       q    Type
REMARK                         _______ _______ _______ _____ _____    ______ ____
ROOT
ATOM      1  O   HOH     1       4.517  14.253  21.300  0.00  0.00    +0.000 OA
ENDROOT
TORSDOF 0
REMARK  Name = ../refined-set-2016/1ex8/1ex8_pocket.pdb
REMARK  257 active torsions:
REMARK  status: ('A' for Active; 'I' for Inactive)
REMARK    1  A    between atoms: _1  and  _3
REMARK    2  A    between atoms: _3  and  _4
REMARK    3  A    between atoms: _3  and  _6
REMARK    4  A    between atoms: _6  and  _7
REMARK    5  A    between atoms: _12  and  _13
REMARK    6  A    between atoms: _15  and  _17
REMARK    7  A    between atoms: _17  and  _18
REMARK    8  A    between atoms: _17  and  _20
REMARK    9  A    between atoms: _20  and  _21
REMARK   10  A    between atoms: _24  and  _26
REMARK   11  A    between atoms: _26  and  _27
REMARK   12  A    between atoms: _30  and  _32
REMARK   13  A    between atoms: _32  and  _33
REMARK   14  A    between atoms: _32  and  _35
REMARK   15  A    between atoms: _35  and  _36
REMARK   16  A    between atoms: _39  and  _41
REMARK   17  A    between atoms: _41  and  _42
REMARK   18  A    between atoms: _44  and  _46
REMARK   19  A    between atoms: _46  and  _47
REMARK   20  A    between atoms: _46  and  _49
REMARK   21  A    between atoms: _49  and  _50
REMARK   22  A    between atoms: _52  and  _54
REMARK   23  A    between atoms: _54  and  _55
REMARK   24  A    between atoms: _54  and  _57
REMARK   25  A    between atoms: _57  and  _58
REMARK   26  A    between atoms: _63  and  _65
REMARK   27  A    between atoms: _65  and  _66
REMARK   28  A    between atoms: _65  and  _68
REMARK   29  A    between atoms: _68  and  _69
REMARK   30  A    between atoms: _74  and  _75
REMARK   31  A    between atoms: _77  and  _79
REMARK   32  A    between atoms: _79  and  _80
REMARK   33  A    between atoms: _79  and  _82
REMARK   34  A    between atoms: _82  and  _83
REMARK   35  A    between atoms: _83  and  _84
REMARK   36  A    between atoms: _84  and  _85
REMARK   37  A    between atoms: _94  and  _96
REMARK   38  A    between atoms: _96  and  _97
REMARK   39  A    between atoms: _96  and  _99
REMARK   40  A    between atoms: _99  and  _100
REMARK   41  A    between atoms: _104  and  _105
REMARK   42  A    between atoms: _111  and  _112
REMARK   43  A    between atoms: _117  and  _119
REMARK   44  A    between atoms: _119  and  _120
REMARK   45  A    between atoms: _119  and  _122
REMARK   46  A    between atoms: _122  and  _123
REMARK   47  A    between atoms: _126  and  _128
REMARK   48  A    between atoms: _128  and  _129
REMARK   49  A    between atoms: _132  and  _133
REMARK   50  A    between atoms: _138  and  _140
REMARK   51  A    between atoms: _140  and  _141
REMARK   52  A    between atoms: _140  and  _143
REMARK   53  A    between atoms: _143  and  _144
REMARK   54  A    between atoms: _144  and  _145
REMARK   55  A    between atoms: _150  and  _152
REMARK   56  A    between atoms: _152  and  _153
REMARK   57  A    between atoms: _152  and  _155
REMARK   58  A    between atoms: _155  and  _156
REMARK   59  A    between atoms: _156  and  _157
REMARK   60  A    between atoms: _163  and  _164
REMARK   61  A    between atoms: _169  and  _171
REMARK   62  A    between atoms: _171  and  _172
REMARK   63  A    between atoms: _171  and  _174
REMARK   64  A    between atoms: _174  and  _175
REMARK   65  A    between atoms: _178  and  _180
REMARK   66  A    between atoms: _180  and  _181
REMARK   67  A    between atoms: _180  and  _183
REMARK   68  A    between atoms: _183  and  _184
REMARK   69  A    between atoms: _189  and  _190
REMARK   70  A    between atoms: _192  and  _194
REMARK   71  A    between atoms: _194  and  _195
REMARK   72  A    between atoms: _194  and  _197
REMARK   73  A    between atoms: _197  and  _198
REMARK   74  A    between atoms: _201  and  _203
REMARK   75  A    between atoms: _203  and  _204
REMARK   76  A    between atoms: _203  and  _206
REMARK   77  A    between atoms: _206  and  _207
REMARK   78  A    between atoms: _212  and  _214
REMARK   79  A    between atoms: _214  and  _215
REMARK   80  A    between atoms: _218  and  _220
REMARK   81  A    between atoms: _220  and  _221
REMARK   82  A    between atoms: _220  and  _223
REMARK   83  A    between atoms: _223  and  _224
REMARK   84  A    between atoms: _224  and  _225
REMARK   85  A    between atoms: _228  and  _230
REMARK   86  A    between atoms: _230  and  _231
REMARK   87  A    between atoms: _230  and  _233
REMARK   88  A    between atoms: _233  and  _234
REMARK   89  A    between atoms: _237  and  _239
REMARK   90  A    between atoms: _239  and  _240
REMARK   91  A    between atoms: _239  and  _242
REMARK   92  A    between atoms: _242  and  _243
REMARK   93  A    between atoms: _246  and  _248
REMARK   94  A    between atoms: _248  and  _249
REMARK   95  A    between atoms: _248  and  _251
REMARK   96  A    between atoms: _251  and  _252
REMARK   97  A    between atoms: _252  and  _253
REMARK   98  A    between atoms: _258  and  _260
REMARK   99  A    between atoms: _260  and  _261
REMARK  100  A    between atoms: _260  and  _263
REMARK  101  A    between atoms: _263  and  _264
REMARK  102  A    between atoms: _264  and  _265
REMARK  103  A    between atoms: _268  and  _270
REMARK  104  A    between atoms: _270  and  _271
REMARK  105  A    between atoms: _270  and  _273
REMARK  106  A    between atoms: _273  and  _274
REMARK  107  A    between atoms: _274  and  _275
REMARK  108  A    between atoms: _275  and  _276
REMARK  109  A    between atoms: _285  and  _287
REMARK  110  A    between atoms: _287  and  _288
REMARK  111  A    between atoms: _287  and  _290
REMARK  112  A    between atoms: _293  and  _295
REMARK  113  A    between atoms: _295  and  _296
REMARK  114  A    between atoms: _295  and  _298
REMARK  115  A    between atoms: _298  and  _299
REMARK  116  A    between atoms: _299  and  _300
REMARK  117  A    between atoms: _300  and  _301
REMARK  118  A    between atoms: _310  and  _312
REMARK  119  A    between atoms: _312  and  _313
REMARK  120  A    between atoms: _312  and  _315
REMARK  121  A    between atoms: _315  and  _316
REMARK  122  A    between atoms: _316  and  _317
REMARK  123  A    between atoms: _317  and  _318
REMARK  124  A    between atoms: _318  and  _319
REMARK  125  A    between atoms: _323  and  _325
REMARK  126  A    between atoms: _325  and  _326
REMARK  127  A    between atoms: _329  and  _331
REMARK  128  A    between atoms: _331  and  _332
REMARK  129  A    between atoms: _331  and  _334
REMARK  130  A    between atoms: _334  and  _335
REMARK  131  A    between atoms: _335  and  _336
REMARK  132  A    between atoms: _339  and  _341
REMARK  133  A    between atoms: _341  and  _342
REMARK  134  A    between atoms: _341  and  _344
REMARK  135  A    between atoms: _344  and  _345
REMARK  136  A    between atoms: _345  and  _346
REMARK  137  A    between atoms: _346  and  _347
REMARK  138  A    between atoms: _356  and  _358
REMARK  139  A    between atoms: _358  and  _359
REMARK  140  A    between atoms: _358  and  _361
REMARK  141  A    between atoms: _361  and  _362
REMARK  142  A    between atoms: _372  and  _374
REMARK  143  A    between atoms: _374  and  _375
REMARK  144  A    between atoms: _378  and  _379
REMARK  145  A    between atoms: _384  and  _386
REMARK  146  A    between atoms: _386  and  _387
REMARK  147  A    between atoms: _386  and  _389
REMARK  148  A    between atoms: _389  and  _390
REMARK  149  A    between atoms: _390  and  _391
REMARK  150  A    between atoms: _391  and  _392
REMARK  151  A    between atoms: _401  and  _403
REMARK  152  A    between atoms: _403  and  _404
REMARK  153  A    between atoms: _403  and  _406
REMARK  154  A    between atoms: _406  and  _407
REMARK  155  A    between atoms: _410  and  _412
REMARK  156  A    between atoms: _412  and  _413
REMARK  157  A    between atoms: _412  and  _415
REMARK  158  A    between atoms: _415  and  _416
REMARK  159  A    between atoms: _419  and  _421
REMARK  160  A    between atoms: _421  and  _422
REMARK  161  A    between atoms: _421  and  _424
REMARK  162  A    between atoms: _424  and  _425
REMARK  163  A    between atoms: _428  and  _430
REMARK  164  A    between atoms: _430  and  _431
REMARK  165  A    between atoms: _430  and  _433
REMARK  166  A    between atoms: _433  and  _434
REMARK  167  A    between atoms: _437  and  _439
REMARK  168  A    between atoms: _439  and  _440
REMARK  169  A    between atoms: _439  and  _442
REMARK  170  A    between atoms: _442  and  _443
REMARK  171  A    between atoms: _446  and  _448
REMARK  172  A    between atoms: _448  and  _449
REMARK  173  A    between atoms: _448  and  _451
REMARK  174  A    between atoms: _451  and  _452
REMARK  175  A    between atoms: _452  and  _453
REMARK  176  A    between atoms: _455  and  _457
REMARK  177  A    between atoms: _457  and  _458
REMARK  178  A    between atoms: _457  and  _460
REMARK  179  A    between atoms: _460  and  _461
REMARK  180  A    between atoms: _464  and  _466
REMARK  181  A    between atoms: _466  and  _467
REMARK  182  A    between atoms: _466  and  _469
REMARK  183  A    between atoms: _469  and  _470
REMARK  184  A    between atoms: _476  and  _478
REMARK  185  A    between atoms: _478  and  _479
REMARK  186  A    between atoms: _478  and  _481
REMARK  187  A    between atoms: _481  and  _482
REMARK  188  A    between atoms: _485  and  _487
REMARK  189  A    between atoms: _487  and  _488
REMARK  190  A    between atoms: _487  and  _490
REMARK  191  A    between atoms: _490  and  _491
REMARK  192  A    between atoms: _496  and  _498
REMARK  193  A    between atoms: _498  and  _499
REMARK  194  A    between atoms: _498  and  _501
REMARK  195  A    between atoms: _501  and  _502
REMARK  196  A    between atoms: _505  and  _507
REMARK  197  A    between atoms: _507  and  _508
REMARK  198  A    between atoms: _507  and  _510
REMARK  199  A    between atoms: _510  and  _511
REMARK  200  A    between atoms: _511  and  _512
REMARK  201  A    between atoms: _515  and  _517
REMARK  202  A    between atoms: _517  and  _518
REMARK  203  A    between atoms: _517  and  _520
REMARK  204  A    between atoms: _520  and  _521
REMARK  205  A    between atoms: _521  and  _522
REMARK  206  A    between atoms: _522  and  _523
REMARK  207  A    between atoms: _532  and  _534
REMARK  208  A    between atoms: _534  and  _535
REMARK  209  A    between atoms: _534  and  _537
REMARK  210  A    between atoms: _537  and  _538
REMARK  211  A    between atoms: _541  and  _543
REMARK  212  A    between atoms: _543  and  _544
REMARK  213  A    between atoms: _543  and  _546
REMARK  214  A    between atoms: _546  and  _547
REMARK  215  A    between atoms: _550  and  _552
REMARK  216  A    between atoms: _552  and  _553
REMARK  217  A    between atoms: _552  and  _555
REMARK  218  A    between atoms: _559  and  _560
REMARK  219  A    between atoms: _565  and  _567
REMARK  220  A    between atoms: _567  and  _568
REMARK  221  A    between atoms: _567  and  _570
REMARK  222  A    between atoms: _570  and  _571
REMARK  223  A    between atoms: _576  and  _578
REMARK  224  A    between atoms: _578  and  _579
REMARK  225  A    between atoms: _578  and  _581
REMARK  226  A    between atoms: _581  and  _582
REMARK  227  A    between atoms: _587  and  _588
REMARK  228  A    between atoms: _590  and  _592
REMARK  229  A    between atoms: _592  and  _593
REMARK  230  A    between atoms: _592  and  _595
REMARK  231  A    between atoms: _595  and  _596
REMARK  232  A    between atoms: _599  and  _601
REMARK  233  A    between atoms: _601  and  _602
REMARK  234  A    between atoms: _601  and  _604
REMARK  235  A    between atoms: _604  and  _605
REMARK  236  A    between atoms: _605  and  _606
REMARK  237  A    between atoms: _608  and  _610
REMARK  238  A    between atoms: _610  and  _611
REMARK  239  A    between atoms: _610  and  _613
REMARK  240  A    between atoms: _613  and  _614
REMARK  241  A    between atoms: _614  and  _615
REMARK  242  A    between atoms: _615  and  _616
REMARK  243  A    between atoms: _625  and  _627
REMARK  244  A    between atoms: _627  and  _628
REMARK  245  A    between atoms: _630  and  _632
REMARK  246  A    between atoms: _632  and  _633
REMARK  247  A    between atoms: _632  and  _635
REMARK  248  A    between atoms: _635  and  _636
REMARK  249  A    between atoms: _642  and  _644
REMARK  250  A    between atoms: _644  and  _645
REMARK  251  A    between atoms: _644  and  _647
REMARK  252  A    between atoms: _647  and  _648
REMARK  253  A    between atoms: _648  and  _649
REMARK  254  A    between atoms: _651  and  _653
REMARK  255  A    between atoms: _653  and  _654
REMARK  256  A    between atoms: _653  and  _656
REMARK  257  A    between atoms: _656  and  _657
REMARK                            x       y       z     vdW  Elec       q    Type
REMARK                         _______ _______ _______ _____ _____    ______ ____
ROOT
ATOM      1  O   HOH     1       4.172  13.632  24.454  0.00  0.00    +0.000 OA
ENDROOT
TORSDOF 0
REMARK  Name = ../refined-set-2016/1ex8/1ex8_pocket.pdb
REMARK  257 active torsions:
REMARK  status: ('A' for Active; 'I' for Inactive)
REMARK    1  A    between atoms: _1  and  _3
REMARK    2  A    between atoms: _3  and  _4
REMARK    3  A    between atoms: _3  and  _6
REMARK    4  A    between atoms: _6  and  _7
REMARK    5  A    between atoms: _12  and  _13
REMARK    6  A    between atoms: _15  and  _17
REMARK    7  A    between atoms: _17  and  _18
REMARK    8  A    between atoms: _17  and  _20
REMARK    9  A    between atoms: _20  and  _21
REMARK   10  A    between atoms: _24  and  _26
REMARK   11  A    between atoms: _26  and  _27
REMARK   12  A    between atoms: _30  and  _32
REMARK   13  A    between atoms: _32  and  _33
REMARK   14  A    between atoms: _32  and  _35
REMARK   15  A    between atoms: _35  and  _36
REMARK   16  A    between atoms: _39  and  _41
REMARK   17  A    between atoms: _41  and  _42
REMARK   18  A    between atoms: _44  and  _46
REMARK   19  A    between atoms: _46  and  _47
REMARK   20  A    between atoms: _46  and  _49
REMARK   21  A    between atoms: _49  and  _50
REMARK   22  A    between atoms: _52  and  _54
REMARK   23  A    between atoms: _54  and  _55
REMARK   24  A    between atoms: _54  and  _57
REMARK   25  A    between atoms: _57  and  _58
REMARK   26  A    between atoms: _63  and  _65
REMARK   27  A    between atoms: _65  and  _66
REMARK   28  A    between atoms: _65  and  _68
REMARK   29  A    between atoms: _68  and  _69
REMARK   30  A    between atoms: _74  and  _75
REMARK   31  A    between atoms: _77  and  _79
REMARK   32  A    between atoms: _79  and  _80
REMARK   33  A    between atoms: _79  and  _82
REMARK   34  A    between atoms: _82  and  _83
REMARK   35  A    between atoms: _83  and  _84
REMARK   36  A    between atoms: _84  and  _85
REMARK   37  A    between atoms: _94  and  _96
REMARK   38  A    between atoms: _96  and  _97
REMARK   39  A    between atoms: _96  and  _99
REMARK   40  A    between atoms: _99  and  _100
REMARK   41  A    between atoms: _104  and  _105
REMARK   42  A    between atoms: _111  and  _112
REMARK   43  A    between atoms: _117  and  _119
REMARK   44  A    between atoms: _119  and  _120
REMARK   45  A    between atoms: _119  and  _122
REMARK   46  A    between atoms: _122  and  _123
REMARK   47  A    between atoms: _126  and  _128
REMARK   48  A    between atoms: _128  and  _129
REMARK   49  A    between atoms: _132  and  _133
REMARK   50  A    between atoms: _138  and  _140
REMARK   51  A    between atoms: _140  and  _141
REMARK   52  A    between atoms: _140  and  _143
REMARK   53  A    between atoms: _143  and  _144
REMARK   54  A    between atoms: _144  and  _145
REMARK   55  A    between atoms: _150  and  _152
REMARK   56  A    between atoms: _152  and  _153
REMARK   57  A    between atoms: _152  and  _155
REMARK   58  A    between atoms: _155  and  _156
REMARK   59  A    between atoms: _156  and  _157
REMARK   60  A    between atoms: _163  and  _164
REMARK   61  A    between atoms: _169  and  _171
REMARK   62  A    between atoms: _171  and  _172
REMARK   63  A    between atoms: _171  and  _174
REMARK   64  A    between atoms: _174  and  _175
REMARK   65  A    between atoms: _178  and  _180
REMARK   66  A    between atoms: _180  and  _181
REMARK   67  A    between atoms: _180  and  _183
REMARK   68  A    between atoms: _183  and  _184
REMARK   69  A    between atoms: _189  and  _190
REMARK   70  A    between atoms: _192  and  _194
REMARK   71  A    between atoms: _194  and  _195
REMARK   72  A    between atoms: _194  and  _197
REMARK   73  A    between atoms: _197  and  _198
REMARK   74  A    between atoms: _201  and  _203
REMARK   75  A    between atoms: _203  and  _204
REMARK   76  A    between atoms: _203  and  _206
REMARK   77  A    between atoms: _206  and  _207
REMARK   78  A    between atoms: _212  and  _214
REMARK   79  A    between atoms: _214  and  _215
REMARK   80  A    between atoms: _218  and  _220
REMARK   81  A    between atoms: _220  and  _221
REMARK   82  A    between atoms: _220  and  _223
REMARK   83  A    between atoms: _223  and  _224
REMARK   84  A    between atoms: _224  and  _225
REMARK   85  A    between atoms: _228  and  _230
REMARK   86  A    between atoms: _230  and  _231
REMARK   87  A    between atoms: _230  and  _233
REMARK   88  A    between atoms: _233  and  _234
REMARK   89  A    between atoms: _237  and  _239
REMARK   90  A    between atoms: _239  and  _240
REMARK   91  A    between atoms: _239  and  _242
REMARK   92  A    between atoms: _242  and  _243
REMARK   93  A    between atoms: _246  and  _248
REMARK   94  A    between atoms: _248  and  _249
REMARK   95  A    between atoms: _248  and  _251
REMARK   96  A    between atoms: _251  and  _252
REMARK   97  A    between atoms: _252  and  _253
REMARK   98  A    between atoms: _258  and  _260
REMARK   99  A    between atoms: _260  and  _261
REMARK  100  A    between atoms: _260  and  _263
REMARK  101  A    between atoms: _263  and  _264
REMARK  102  A    between atoms: _264  and  _265
REMARK  103  A    between atoms: _268  and  _270
REMARK  104  A    between atoms: _270  and  _271
REMARK  105  A    between atoms: _270  and  _273
REMARK  106  A    between atoms: _273  and  _274
REMARK  107  A    between atoms: _274  and  _275
REMARK  108  A    between atoms: _275  and  _276
REMARK  109  A    between atoms: _285  and  _287
REMARK  110  A    between atoms: _287  and  _288
REMARK  111  A    between atoms: _287  and  _290
REMARK  112  A    between atoms: _293  and  _295
REMARK  113  A    between atoms: _295  and  _296
REMARK  114  A    between atoms: _295  and  _298
REMARK  115  A    between atoms: _298  and  _299
REMARK  116  A    between atoms: _299  and  _300
REMARK  117  A    between atoms: _300  and  _301
REMARK  118  A    between atoms: _310  and  _312
REMARK  119  A    between atoms: _312  and  _313
REMARK  120  A    between atoms: _312  and  _315
REMARK  121  A    between atoms: _315  and  _316
REMARK  122  A    between atoms: _316  and  _317
REMARK  123  A    between atoms: _317  and  _318
REMARK  124  A    between atoms: _318  and  _319
REMARK  125  A    between atoms: _323  and  _325
REMARK  126  A    between atoms: _325  and  _326
REMARK  127  A    between atoms: _329  and  _331
REMARK  128  A    between atoms: _331  and  _332
REMARK  129  A    between atoms: _331  and  _334
REMARK  130  A    between atoms: _334  and  _335
REMARK  131  A    between atoms: _335  and  _336
REMARK  132  A    between atoms: _339  and  _341
REMARK  133  A    between atoms: _341  and  _342
REMARK  134  A    between atoms: _341  and  _344
REMARK  135  A    between atoms: _344  and  _345
REMARK  136  A    between atoms: _345  and  _346
REMARK  137  A    between atoms: _346  and  _347
REMARK  138  A    between atoms: _356  and  _358
REMARK  139  A    between atoms: _358  and  _359
REMARK  140  A    between atoms: _358  and  _361
REMARK  141  A    between atoms: _361  and  _362
REMARK  142  A    between atoms: _372  and  _374
REMARK  143  A    between atoms: _374  and  _375
REMARK  144  A    between atoms: _378  and  _379
REMARK  145  A    between atoms: _384  and  _386
REMARK  146  A    between atoms: _386  and  _387
REMARK  147  A    between atoms: _386  and  _389
REMARK  148  A    between atoms: _389  and  _390
REMARK  149  A    between atoms: _390  and  _391
REMARK  150  A    between atoms: _391  and  _392
REMARK  151  A    between atoms: _401  and  _403
REMARK  152  A    between atoms: _403  and  _404
REMARK  153  A    between atoms: _403  and  _406
REMARK  154  A    between atoms: _406  and  _407
REMARK  155  A    between atoms: _410  and  _412
REMARK  156  A    between atoms: _412  and  _413
REMARK  157  A    between atoms: _412  and  _415
REMARK  158  A    between atoms: _415  and  _416
REMARK  159  A    between atoms: _419  and  _421
REMARK  160  A    between atoms: _421  and  _422
REMARK  161  A    between atoms: _421  and  _424
REMARK  162  A    between atoms: _424  and  _425
REMARK  163  A    between atoms: _428  and  _430
REMARK  164  A    between atoms: _430  and  _431
REMARK  165  A    between atoms: _430  and  _433
REMARK  166  A    between atoms: _433  and  _434
REMARK  167  A    between atoms: _437  and  _439
REMARK  168  A    between atoms: _439  and  _440
REMARK  169  A    between atoms: _439  and  _442
REMARK  170  A    between atoms: _442  and  _443
REMARK  171  A    between atoms: _446  and  _448
REMARK  172  A    between atoms: _448  and  _449
REMARK  173  A    between atoms: _448  and  _451
REMARK  174  A    between atoms: _451  and  _452
REMARK  175  A    between atoms: _452  and  _453
REMARK  176  A    between atoms: _455  and  _457
REMARK  177  A    between atoms: _457  and  _458
REMARK  178  A    between atoms: _457  and  _460
REMARK  179  A    between atoms: _460  and  _461
REMARK  180  A    between atoms: _464  and  _466
REMARK  181  A    between atoms: _466  and  _467
REMARK  182  A    between atoms: _466  and  _469
REMARK  183  A    between atoms: _469  and  _470
REMARK  184  A    between atoms: _476  and  _478
REMARK  185  A    between atoms: _478  and  _479
REMARK  186  A    between atoms: _478  and  _481
REMARK  187  A    between atoms: _481  and  _482
REMARK  188  A    between atoms: _485  and  _487
REMARK  189  A    between atoms: _487  and  _488
REMARK  190  A    between atoms: _487  and  _490
REMARK  191  A    between atoms: _490  and  _491
REMARK  192  A    between atoms: _496  and  _498
REMARK  193  A    between atoms: _498  and  _499
REMARK  194  A    between atoms: _498  and  _501
REMARK  195  A    between atoms: _501  and  _502
REMARK  196  A    between atoms: _505  and  _507
REMARK  197  A    between atoms: _507  and  _508
REMARK  198  A    between atoms: _507  and  _510
REMARK  199  A    between atoms: _510  and  _511
REMARK  200  A    between atoms: _511  and  _512
REMARK  201  A    between atoms: _515  and  _517
REMARK  202  A    between atoms: _517  and  _518
REMARK  203  A    between atoms: _517  and  _520
REMARK  204  A    between atoms: _520  and  _521
REMARK  205  A    between atoms: _521  and  _522
REMARK  206  A    between atoms: _522  and  _523
REMARK  207  A    between atoms: _532  and  _534
REMARK  208  A    between atoms: _534  and  _535
REMARK  209  A    between atoms: _534  and  _537
REMARK  210  A    between atoms: _537  and  _538
REMARK  211  A    between atoms: _541  and  _543
REMARK  212  A    between atoms: _543  and  _544
REMARK  213  A    between atoms: _543  and  _546
REMARK  214  A    between atoms: _546  and  _547
REMARK  215  A    between atoms: _550  and  _552
REMARK  216  A    between atoms: _552  and  _553
REMARK  217  A    between atoms: _552  and  _555
REMARK  218  A    between atoms: _559  and  _560
REMARK  219  A    between atoms: _565  and  _567
REMARK  220  A    between atoms: _567  and  _568
REMARK  221  A    between atoms: _567  and  _570
REMARK  222  A    between atoms: _570  and  _571
REMARK  223  A    between atoms: _576  and  _578
REMARK  224  A    between atoms: _578  and  _579
REMARK  225  A    between atoms: _578  and  _581
REMARK  226  A    between atoms: _581  and  _582
REMARK  227  A    between atoms: _587  and  _588
REMARK  228  A    between atoms: _590  and  _592
REMARK  229  A    between atoms: _592  and  _593
REMARK  230  A    between atoms: _592  and  _595
REMARK  231  A    between atoms: _595  and  _596
REMARK  232  A    between atoms: _599  and  _601
REMARK  233  A    between atoms: _601  and  _602
REMARK  234  A    between atoms: _601  and  _604
REMARK  235  A    between atoms: _604  and  _605
REMARK  236  A    between atoms: _605  and  _606
REMARK  237  A    between atoms: _608  and  _610
REMARK  238  A    between atoms: _610  and  _611
REMARK  239  A    between atoms: _610  and  _613
REMARK  240  A    between atoms: _613  and  _614
REMARK  241  A    between atoms: _614  and  _615
REMARK  242  A    between atoms: _615  and  _616
REMARK  243  A    between atoms: _625  and  _627
REMARK  244  A    between atoms: _627  and  _628
REMARK  245  A    between atoms: _630  and  _632
REMARK  246  A    between atoms: _632  and  _633
REMARK  247  A    between atoms: _632  and  _635
REMARK  248  A    between atoms: _635  and  _636
REMARK  249  A    between atoms: _642  and  _644
REMARK  250  A    between atoms: _644  and  _645
REMARK  251  A    between atoms: _644  and  _647
REMARK  252  A    between atoms: _647  and  _648
REMARK  253  A    between atoms: _648  and  _649
REMARK  254  A    between atoms: _651  and  _653
REMARK  255  A    between atoms: _653  and  _654
REMARK  256  A    between atoms: _653  and  _656
REMARK  257  A    between atoms: _656  and  _657
REMARK                            x       y       z     vdW  Elec       q    Type
REMARK                         _______ _______ _______ _____ _____    ______ ____
ROOT
ATOM      1  O   HOH     1      -0.312  12.050  30.310  0.00  0.00    +0.000 OA
ENDROOT
TORSDOF 0
