REMARK  Name = ../refined-set-2016/1g7q/1g7q_pocket.pdb
REMARK  282 active torsions:
REMARK  status: ('A' for Active; 'I' for Inactive)
REMARK    1  A    between atoms: _1  and  _3
REMARK    2  A    between atoms: _3  and  _4
REMARK    3  A    between atoms: _3  and  _6
REMARK    4  A    between atoms: _6  and  _7
REMARK    5  A    between atoms: _10  and  _12
REMARK    6  A    between atoms: _12  and  _13
REMARK    7  A    between atoms: _12  and  _15
REMARK    8  A    between atoms: _15  and  _16
REMARK    9  A    between atoms: _16  and  _17
REMARK   10  A    between atoms: _17  and  _18
REMARK   11  A    between atoms: _27  and  _29
REMARK   12  A    between atoms: _29  and  _30
REMARK   13  A    between atoms: _29  and  _32
REMARK   14  A    between atoms: _32  and  _33
REMARK   15  A    between atoms: _38  and  _39
REMARK   16  A    between atoms: _41  and  _43
REMARK   17  A    between atoms: _43  and  _44
REMARK   18  A    between atoms: _43  and  _46
REMARK   19  A    between atoms: _46  and  _47
REMARK   20  A    between atoms: _53  and  _55
REMARK   21  A    between atoms: _55  and  _56
REMARK   22  A    between atoms: _55  and  _58
REMARK   23  A    between atoms: _61  and  _63
REMARK   24  A    between atoms: _63  and  _64
REMARK   25  A    between atoms: _63  and  _66
REMARK   26  A    between atoms: _66  and  _67
REMARK   27  A    between atoms: _72  and  _73
REMARK   28  A    between atoms: _75  and  _77
REMARK   29  A    between atoms: _77  and  _78
REMARK   30  A    between atoms: _77  and  _80
REMARK   31  A    between atoms: _80  and  _81
REMARK   32  A    between atoms: _81  and  _82
REMARK   33  A    between atoms: _85  and  _87
REMARK   34  A    between atoms: _87  and  _88
REMARK   35  A    between atoms: _87  and  _90
REMARK   36  A    between atoms: _93  and  _95
REMARK   37  A    between atoms: _95  and  _96
REMARK   38  A    between atoms: _98  and  _100
REMARK   39  A    between atoms: _100  and  _101
REMARK   40  A    between atoms: _100  and  _103
REMARK   41  A    between atoms: _106  and  _108
REMARK   42  A    between atoms: _108  and  _109
REMARK   43  A    between atoms: _108  and  _111
REMARK   44  A    between atoms: _111  and  _112
REMARK   45  A    between atoms: _118  and  _120
REMARK   46  A    between atoms: _120  and  _121
REMARK   47  A    between atoms: _120  and  _123
REMARK   48  A    between atoms: _126  and  _128
REMARK   49  A    between atoms: _128  and  _129
REMARK   50  A    between atoms: _128  and  _131
REMARK   51  A    between atoms: _131  and  _132
REMARK   52  A    between atoms: _137  and  _138
REMARK   53  A    between atoms: _140  and  _142
REMARK   54  A    between atoms: _142  and  _143
REMARK   55  A    between atoms: _142  and  _145
REMARK   56  A    between atoms: _145  and  _146
REMARK   57  A    between atoms: _146  and  _147
REMARK   58  A    between atoms: _149  and  _151
REMARK   59  A    between atoms: _151  and  _152
REMARK   60  A    between atoms: _151  and  _154
REMARK   61  A    between atoms: _154  and  _155
REMARK   62  A    between atoms: _160  and  _161
REMARK   63  A    between atoms: _163  and  _165
REMARK   64  A    between atoms: _165  and  _166
REMARK   65  A    between atoms: _165  and  _168
REMARK   66  A    between atoms: _168  and  _169
REMARK   67  A    between atoms: _169  and  _170
REMARK   68  A    between atoms: _170  and  _171
REMARK   69  A    between atoms: _180  and  _182
REMARK   70  A    between atoms: _182  and  _183
REMARK   71  A    between atoms: _182  and  _185
REMARK   72  A    between atoms: _185  and  _186
REMARK   73  A    between atoms: _186  and  _187
REMARK   74  A    between atoms: _190  and  _192
REMARK   75  A    between atoms: _192  and  _193
REMARK   76  A    between atoms: _192  and  _195
REMARK   77  A    between atoms: _195  and  _196
REMARK   78  A    between atoms: _196  and  _197
REMARK   79  A    between atoms: _202  and  _204
REMARK   80  A    between atoms: _204  and  _205
REMARK   81  A    between atoms: _204  and  _207
REMARK   82  A    between atoms: _207  and  _208
REMARK   83  A    between atoms: _208  and  _209
REMARK   84  A    between atoms: _209  and  _210
REMARK   85  A    between atoms: _210  and  _211
REMARK   86  A    between atoms: _215  and  _217
REMARK   87  A    between atoms: _217  and  _218
REMARK   88  A    between atoms: _221  and  _223
REMARK   89  A    between atoms: _223  and  _224
REMARK   90  A    between atoms: _226  and  _228
REMARK   91  A    between atoms: _228  and  _229
REMARK   92  A    between atoms: _228  and  _231
REMARK   93  A    between atoms: _231  and  _232
REMARK   94  A    between atoms: _237  and  _239
REMARK   95  A    between atoms: _239  and  _240
REMARK   96  A    between atoms: _239  and  _242
REMARK   97  A    between atoms: _242  and  _243
REMARK   98  A    between atoms: _243  and  _244
REMARK   99  A    between atoms: _247  and  _249
REMARK  100  A    between atoms: _249  and  _250
REMARK  101  A    between atoms: _249  and  _252
REMARK  102  A    between atoms: _252  and  _253
REMARK  103  A    between atoms: _253  and  _254
REMARK  104  A    between atoms: _259  and  _261
REMARK  105  A    between atoms: _261  and  _262
REMARK  106  A    between atoms: _261  and  _264
REMARK  107  A    between atoms: _264  and  _265
REMARK  108  A    between atoms: _267  and  _269
REMARK  109  A    between atoms: _269  and  _270
REMARK  110  A    between atoms: _269  and  _272
REMARK  111  A    between atoms: _272  and  _273
REMARK  112  A    between atoms: _279  and  _281
REMARK  113  A    between atoms: _281  and  _282
REMARK  114  A    between atoms: _281  and  _284
REMARK  115  A    between atoms: _284  and  _285
REMARK  116  A    between atoms: _285  and  _286
REMARK  117  A    between atoms: _286  and  _287
REMARK  118  A    between atoms: _296  and  _298
REMARK  119  A    between atoms: _298  and  _299
REMARK  120  A    between atoms: _298  and  _301
REMARK  121  A    between atoms: _304  and  _306
REMARK  122  A    between atoms: _306  and  _307
REMARK  123  A    between atoms: _306  and  _309
REMARK  124  A    between atoms: _309  and  _310
REMARK  125  A    between atoms: _313  and  _315
REMARK  126  A    between atoms: _315  and  _316
REMARK  127  A    between atoms: _315  and  _318
REMARK  128  A    between atoms: _318  and  _319
REMARK  129  A    between atoms: _322  and  _324
REMARK  130  A    between atoms: _324  and  _325
REMARK  131  A    between atoms: _324  and  _327
REMARK  132  A    between atoms: _327  and  _328
REMARK  133  A    between atoms: _331  and  _333
REMARK  134  A    between atoms: _333  and  _334
REMARK  135  A    between atoms: _333  and  _336
REMARK  136  A    between atoms: _336  and  _337
REMARK  137  A    between atoms: _340  and  _342
REMARK  138  A    between atoms: _342  and  _343
REMARK  139  A    between atoms: _342  and  _345
REMARK  140  A    between atoms: _345  and  _346
REMARK  141  A    between atoms: _351  and  _352
REMARK  142  A    between atoms: _354  and  _356
REMARK  143  A    between atoms: _356  and  _357
REMARK  144  A    between atoms: _356  and  _359
REMARK  145  A    between atoms: _359  and  _360
REMARK  146  A    between atoms: _363  and  _365
REMARK  147  A    between atoms: _365  and  _366
REMARK  148  A    between atoms: _365  and  _368
REMARK  149  A    between atoms: _371  and  _373
REMARK  150  A    between atoms: _373  and  _374
REMARK  151  A    between atoms: _373  and  _376
REMARK  152  A    between atoms: _376  and  _377
REMARK  153  A    between atoms: _380  and  _382
REMARK  154  A    between atoms: _382  and  _383
REMARK  155  A    between atoms: _382  and  _385
REMARK  156  A    between atoms: _385  and  _386
REMARK  157  A    between atoms: _388  and  _390
REMARK  158  A    between atoms: _390  and  _391
REMARK  159  A    between atoms: _393  and  _395
REMARK  160  A    between atoms: _395  and  _396
REMARK  161  A    between atoms: _395  and  _398
REMARK  162  A    between atoms: _398  and  _399
REMARK  163  A    between atoms: _399  and  _640
REMARK  164  A    between atoms: _400  and  _402
REMARK  165  A    between atoms: _402  and  _403
REMARK  166  A    between atoms: _402  and  _405
REMARK  167  A    between atoms: _405  and  _406
REMARK  168  A    between atoms: _411  and  _412
REMARK  169  A    between atoms: _414  and  _416
REMARK  170  A    between atoms: _416  and  _417
REMARK  171  A    between atoms: _416  and  _419
REMARK  172  A    between atoms: _419  and  _420
REMARK  173  A    between atoms: _420  and  _421
REMARK  174  A    between atoms: _426  and  _428
REMARK  175  A    between atoms: _428  and  _429
REMARK  176  A    between atoms: _428  and  _431
REMARK  177  A    between atoms: _431  and  _432
REMARK  178  A    between atoms: _437  and  _438
REMARK  179  A    between atoms: _440  and  _442
REMARK  180  A    between atoms: _442  and  _443
REMARK  181  A    between atoms: _442  and  _445
REMARK  182  A    between atoms: _445  and  _446
REMARK  183  A    between atoms: _451  and  _452
REMARK  184  A    between atoms: _454  and  _456
REMARK  185  A    between atoms: _456  and  _457
REMARK  186  A    between atoms: _456  and  _459
REMARK  187  A    between atoms: _459  and  _460
REMARK  188  A    between atoms: _463  and  _465
REMARK  189  A    between atoms: _465  and  _466
REMARK  190  A    between atoms: _469  and  _471
REMARK  191  A    between atoms: _471  and  _472
REMARK  192  A    between atoms: _475  and  _477
REMARK  193  A    between atoms: _477  and  _478
REMARK  194  A    between atoms: _477  and  _480
REMARK  195  A    between atoms: _480  and  _481
REMARK  196  A    between atoms: _484  and  _486
REMARK  197  A    between atoms: _486  and  _487
REMARK  198  A    between atoms: _486  and  _489
REMARK  199  A    between atoms: _489  and  _490
REMARK  200  A    between atoms: _493  and  _495
REMARK  201  A    between atoms: _495  and  _496
REMARK  202  A    between atoms: _495  and  _498
REMARK  203  A    between atoms: _498  and  _499
REMARK  204  A    between atoms: _502  and  _504
REMARK  205  A    between atoms: _504  and  _505
REMARK  206  A    between atoms: _504  and  _507
REMARK  207  A    between atoms: _507  and  _508
REMARK  208  A    between atoms: _508  and  _509
REMARK  209  A    between atoms: _509  and  _510
REMARK  210  A    between atoms: _510  and  _511
REMARK  211  A    between atoms: _515  and  _517
REMARK  212  A    between atoms: _517  and  _518
REMARK  213  A    between atoms: _517  and  _520
REMARK  214  A    between atoms: _520  and  _521
REMARK  215  A    between atoms: _526  and  _528
REMARK  216  A    between atoms: _528  and  _529
REMARK  217  A    between atoms: _528  and  _531
REMARK  218  A    between atoms: _531  and  _532
REMARK  219  A    between atoms: _532  and  _533
REMARK  220  A    between atoms: _533  and  _534
REMARK  221  A    between atoms: _534  and  _535
REMARK  222  A    between atoms: _539  and  _541
REMARK  223  A    between atoms: _541  and  _542
REMARK  224  A    between atoms: _541  and  _544
REMARK  225  A    between atoms: _544  and  _545
REMARK  226  A    between atoms: _555  and  _557
REMARK  227  A    between atoms: _557  and  _558
REMARK  228  A    between atoms: _561  and  _563
REMARK  229  A    between atoms: _563  and  _564
REMARK  230  A    between atoms: _566  and  _568
REMARK  231  A    between atoms: _568  and  _569
REMARK  232  A    between atoms: _568  and  _571
REMARK  233  A    between atoms: _571  and  _572
REMARK  234  A    between atoms: _572  and  _573
REMARK  235  A    between atoms: _576  and  _578
REMARK  236  A    between atoms: _578  and  _579
REMARK  237  A    between atoms: _578  and  _581
REMARK  238  A    between atoms: _581  and  _582
REMARK  239  A    between atoms: _582  and  _583
REMARK  240  A    between atoms: _583  and  _584
REMARK  241  A    between atoms: _593  and  _595
REMARK  242  A    between atoms: _595  and  _596
REMARK  243  A    between atoms: _595  and  _598
REMARK  244  A    between atoms: _598  and  _599
REMARK  245  A    between atoms: _602  and  _604
REMARK  246  A    between atoms: _604  and  _605
REMARK  247  A    between atoms: _604  and  _607
REMARK  248  A    between atoms: _607  and  _608
REMARK  249  A    between atoms: _613  and  _614
REMARK  250  A    between atoms: _616  and  _618
REMARK  251  A    between atoms: _618  and  _619
REMARK  252  A    between atoms: _618  and  _621
REMARK  253  A    between atoms: _621  and  _622
REMARK  254  A    between atoms: _625  and  _627
REMARK  255  A    between atoms: _627  and  _628
REMARK  256  A    between atoms: _627  and  _630
REMARK  257  A    between atoms: _630  and  _631
REMARK  258  A    between atoms: _634  and  _636
REMARK  259  A    between atoms: _636  and  _637
REMARK  260  A    between atoms: _636  and  _639
REMARK  261  A    between atoms: _639  and  _640
REMARK  262  A    between atoms: _641  and  _643
REMARK  263  A    between atoms: _643  and  _644
REMARK  264  A    between atoms: _643  and  _646
REMARK  265  A    between atoms: _649  and  _651
REMARK  266  A    between atoms: _651  and  _652
REMARK  267  A    between atoms: _651  and  _654
REMARK  268  A    between atoms: _654  and  _655
REMARK  269  A    between atoms: _655  and  _656
REMARK  270  A    between atoms: _659  and  _661
REMARK  271  A    between atoms: _661  and  _662
REMARK  272  A    between atoms: _661  and  _664
REMARK  273  A    between atoms: _664  and  _665
REMARK  274  A    between atoms: _675  and  _677
REMARK  275  A    between atoms: _677  and  _678
REMARK  276  A    between atoms: _677  and  _680
REMARK  277  A    between atoms: _680  and  _681
REMARK  278  A    between atoms: _684  and  _686
REMARK  279  A    between atoms: _686  and  _687
REMARK  280  A    between atoms: _686  and  _689
REMARK  281  A    between atoms: _689  and  _690
REMARK  282  A    between atoms: _695  and  _696
REMARK                            x       y       z     vdW  Elec       q    Type
REMARK                         _______ _______ _______ _____ _____    ______ ____
ROOT
ATOM      1  CA  TYR A   3      46.907  50.823   0.039  0.00  0.00    +0.153 C 
ENDROOT
BRANCH   1   2
ATOM      2  C   TYR A   3      46.130  50.048  -1.004  0.00  0.00    +0.241 C 
ATOM      3  N   PHE A   4      45.276  49.142  -0.534  0.00  0.00    -0.297 N 
ATOM      4  H   PHE A   4      45.209  49.001   0.494  0.00  0.00    +0.150 HD
ATOM      5  O   TYR A   3      46.325  50.249  -2.206  0.00  0.00    -0.273 OA
BRANCH   3   6
ATOM      6  CA  PHE A   4      44.432  48.341  -1.409  0.00  0.00    +0.153 C 
BRANCH   6   7
ATOM      7  C   PHE A   4      43.043  48.945  -1.286  0.00  0.00    +0.241 C 
ATOM      8  O   PHE A   4      42.444  48.930  -0.210  0.00  0.00    -0.273 OA
ATOM      9  N   VAL A   5      42.546  49.488  -2.389  0.00  0.00    -0.298 N 
ATOM     10  H   VAL A   5      43.105  49.445  -3.265  0.00  0.00    +0.150 HD
BRANCH   9  11
ATOM     11  CA  VAL A   5      41.247  50.142  -2.418  0.00  0.00    +0.137 C 
BRANCH  11  12
ATOM     12  CB  VAL A   5      41.398  51.585  -2.954  0.00  0.00    +0.026 C 
ATOM     13  CG2 VAL A   5      42.363  52.358  -2.066  0.00  0.00    +0.002 C 
ATOM     14  CG1 VAL A   5      40.049  52.274  -3.016  0.00  0.00    +0.002 C 
ENDBRANCH  11  12
BRANCH  11  15
ATOM     15  C   VAL A   5      40.278  49.373  -3.301  0.00  0.00    +0.227 C 
ATOM     16  O   VAL A   5      40.622  48.974  -4.413  0.00  0.00    -0.286 OA
ENDBRANCH  11  15
ENDBRANCH   9  11
ENDBRANCH   6   7
BRANCH   6  17
ATOM     17  CB  PHE A   4      44.402  46.877  -0.962  0.00  0.00    +0.055 C 
BRANCH  17  18
ATOM     18  CG  PHE A   4      45.720  46.159  -1.123  0.00  0.00    -0.020 A 
ATOM     19  CD2 PHE A   4      46.743  46.326  -0.194  0.00  0.00    -0.004 A 
ATOM     20  CE2 PHE A   4      47.972  45.667  -0.346  0.00  0.00    -0.000 A 
ATOM     21  CZ  PHE A   4      48.174  44.832  -1.442  0.00  0.00    -0.000 A 
ATOM     22  CE1 PHE A   4      47.153  44.661  -2.377  0.00  0.00    -0.000 A 
ATOM     23  CD1 PHE A   4      45.936  45.323  -2.211  0.00  0.00    -0.004 A 
ENDBRANCH  17  18
ENDBRANCH   6  17
ENDBRANCH   3   6
ENDBRANCH   1   2
BRANCH   1  26
ATOM     24  C   ARG A   2      49.153  50.182   0.684  0.00  0.00    +0.241 C 
ATOM     25  O   ARG A   2      48.801  49.872   1.818  0.00  0.00    -0.273 OA
ATOM     26  N   TYR A   3      48.323  50.664  -0.230  0.00  0.00    -0.297 N 
ATOM     27  H   TYR A   3      48.696  50.935  -1.162  0.00  0.00    +0.150 HD
BRANCH  24  28
ATOM     28  CA  ARG A   2      50.589  50.011   0.235  0.00  0.00    +0.149 C 
BRANCH  28  30
ATOM     29  C   LEU A   1      52.614  51.112   1.015  0.00  0.00    +0.238 C 
ATOM     30  N   ARG A   2      51.561  50.341   1.270  0.00  0.00    -0.297 N 
ATOM     31  H   ARG A   2      51.428  49.965   2.230  0.00  0.00    +0.150 HD
ATOM     32  O   LEU A   1      52.847  51.591  -0.101  0.00  0.00    -0.274 OA
BRANCH  29  33
ATOM     33  CA  LEU A   1      53.573  51.358   2.172  0.00  0.00    +0.145 C 
BRANCH  33  34
ATOM     34  N   LEU A   1      54.828  50.830   1.656  0.00  0.00    -0.238 NA
ATOM     35  H   LEU A   1      55.188  51.202   0.754  0.00  0.00    +0.142 HD
ENDBRANCH  33  34
BRANCH  33  36
ATOM     36  CB  LEU A   1      53.682  52.858   2.472  0.00  0.00    +0.026 C 
BRANCH  36  37
ATOM     37  CG  LEU A   1      52.362  53.564   2.805  0.00  0.00    +0.002 C 
ATOM     38  CD2 LEU A   1      51.654  52.865   3.962  0.00  0.00    +0.000 C 
ATOM     39  CD1 LEU A   1      52.641  55.021   3.158  0.00  0.00    +0.000 C 
ENDBRANCH  36  37
ENDBRANCH  33  36
ENDBRANCH  29  33
ENDBRANCH  28  30
BRANCH  28  40
ATOM     40  CB  ARG A   2      50.759  48.556  -0.215  0.00  0.00    +0.033 C 
BRANCH  40  41
ATOM     41  CG  ARG A   2      52.082  48.239  -0.875  0.00  0.00    +0.045 C 
BRANCH  41  42
ATOM     42  CD  ARG A   2      52.192  46.739  -1.154  0.00  0.00    +0.174 C 
BRANCH  42  43
ATOM     43  NE  ARG A   2      52.068  45.956   0.072  0.00  0.00    -0.265 N 
ATOM     44  HE  ARG A   2      52.045  46.470   0.976  0.00  0.00    +0.259 HD
ATOM     45  CZ  ARG A   2      51.983  44.629   0.111  0.00  0.00    +0.342 C 
ATOM     46  NH2 ARG A   2      51.873  44.004   1.277  0.00  0.00    -0.292 N 
ATOM     47 HH21 ARG A   2      51.853  44.552   2.161  0.00  0.00    +0.255 HD
ATOM     48 HH22 ARG A   2      51.807  42.967   1.307  0.00  0.00    +0.255 HD
ATOM     49  NH1 ARG A   2      52.000  43.927  -1.015  0.00  0.00    -0.292 N 
ATOM     50 HH11 ARG A   2      51.933  42.890  -0.982  0.00  0.00    +0.255 HD
ATOM     51 HH12 ARG A   2      52.080  44.414  -1.930  0.00  0.00    +0.255 HD
ENDBRANCH  42  43
ENDBRANCH  41  42
ENDBRANCH  40  41
ENDBRANCH  28  40
ENDBRANCH  24  28
ENDBRANCH   1  26
BRANCH   1  52
ATOM     52  CB  TYR A   3      46.506  52.298  -0.010  0.00  0.00    +0.055 C 
BRANCH  52  53
ATOM     53  CG  TYR A   3      47.024  53.069   1.171  0.00  0.00    -0.020 A 
ATOM     54  CD2 TYR A   3      46.377  53.001   2.404  0.00  0.00    -0.001 A 
ATOM     55  CE2 TYR A   3      46.888  53.662   3.520  0.00  0.00    +0.036 A 
ATOM     56  CZ  TYR A   3      48.056  54.395   3.398  0.00  0.00    +0.134 A 
ATOM     57  CE1 TYR A   3      48.713  54.478   2.182  0.00  0.00    +0.036 A 
ATOM     58  CD1 TYR A   3      48.193  53.818   1.077  0.00  0.00    -0.001 A 
BRANCH  56  59
ATOM     59  OH  TYR A   3      48.580  55.036   4.494  0.00  0.00    -0.506 OA
ATOM     60  HH  TYR A   3      47.995  54.879   5.277  0.00  0.00    +0.292 HD
ENDBRANCH  56  59
ENDBRANCH  52  53
ENDBRANCH   1  52
TORSDOF 22
REMARK  Name = ../refined-set-2016/1g7q/1g7q_pocket.pdb
REMARK  282 active torsions:
REMARK  status: ('A' for Active; 'I' for Inactive)
REMARK    1  A    between atoms: _1  and  _3
REMARK    2  A    between atoms: _3  and  _4
REMARK    3  A    between atoms: _3  and  _6
REMARK    4  A    between atoms: _6  and  _7
REMARK    5  A    between atoms: _10  and  _12
REMARK    6  A    between atoms: _12  and  _13
REMARK    7  A    between atoms: _12  and  _15
REMARK    8  A    between atoms: _15  and  _16
REMARK    9  A    between atoms: _16  and  _17
REMARK   10  A    between atoms: _17  and  _18
REMARK   11  A    between atoms: _27  and  _29
REMARK   12  A    between atoms: _29  and  _30
REMARK   13  A    between atoms: _29  and  _32
REMARK   14  A    between atoms: _32  and  _33
REMARK   15  A    between atoms: _38  and  _39
REMARK   16  A    between atoms: _41  and  _43
REMARK   17  A    between atoms: _43  and  _44
REMARK   18  A    between atoms: _43  and  _46
REMARK   19  A    between atoms: _46  and  _47
REMARK   20  A    between atoms: _53  and  _55
REMARK   21  A    between atoms: _55  and  _56
REMARK   22  A    between atoms: _55  and  _58
REMARK   23  A    between atoms: _61  and  _63
REMARK   24  A    between atoms: _63  and  _64
REMARK   25  A    between atoms: _63  and  _66
REMARK   26  A    between atoms: _66  and  _67
REMARK   27  A    between atoms: _72  and  _73
REMARK   28  A    between atoms: _75  and  _77
REMARK   29  A    between atoms: _77  and  _78
REMARK   30  A    between atoms: _77  and  _80
REMARK   31  A    between atoms: _80  and  _81
REMARK   32  A    between atoms: _81  and  _82
REMARK   33  A    between atoms: _85  and  _87
REMARK   34  A    between atoms: _87  and  _88
REMARK   35  A    between atoms: _87  and  _90
REMARK   36  A    between atoms: _93  and  _95
REMARK   37  A    between atoms: _95  and  _96
REMARK   38  A    between atoms: _98  and  _100
REMARK   39  A    between atoms: _100  and  _101
REMARK   40  A    between atoms: _100  and  _103
REMARK   41  A    between atoms: _106  and  _108
REMARK   42  A    between atoms: _108  and  _109
REMARK   43  A    between atoms: _108  and  _111
REMARK   44  A    between atoms: _111  and  _112
REMARK   45  A    between atoms: _118  and  _120
REMARK   46  A    between atoms: _120  and  _121
REMARK   47  A    between atoms: _120  and  _123
REMARK   48  A    between atoms: _126  and  _128
REMARK   49  A    between atoms: _128  and  _129
REMARK   50  A    between atoms: _128  and  _131
REMARK   51  A    between atoms: _131  and  _132
REMARK   52  A    between atoms: _137  and  _138
REMARK   53  A    between atoms: _140  and  _142
REMARK   54  A    between atoms: _142  and  _143
REMARK   55  A    between atoms: _142  and  _145
REMARK   56  A    between atoms: _145  and  _146
REMARK   57  A    between atoms: _146  and  _147
REMARK   58  A    between atoms: _149  and  _151
REMARK   59  A    between atoms: _151  and  _152
REMARK   60  A    between atoms: _151  and  _154
REMARK   61  A    between atoms: _154  and  _155
REMARK   62  A    between atoms: _160  and  _161
REMARK   63  A    between atoms: _163  and  _165
REMARK   64  A    between atoms: _165  and  _166
REMARK   65  A    between atoms: _165  and  _168
REMARK   66  A    between atoms: _168  and  _169
REMARK   67  A    between atoms: _169  and  _170
REMARK   68  A    between atoms: _170  and  _171
REMARK   69  A    between atoms: _180  and  _182
REMARK   70  A    between atoms: _182  and  _183
REMARK   71  A    between atoms: _182  and  _185
REMARK   72  A    between atoms: _185  and  _186
REMARK   73  A    between atoms: _186  and  _187
REMARK   74  A    between atoms: _190  and  _192
REMARK   75  A    between atoms: _192  and  _193
REMARK   76  A    between atoms: _192  and  _195
REMARK   77  A    between atoms: _195  and  _196
REMARK   78  A    between atoms: _196  and  _197
REMARK   79  A    between atoms: _202  and  _204
REMARK   80  A    between atoms: _204  and  _205
REMARK   81  A    between atoms: _204  and  _207
REMARK   82  A    between atoms: _207  and  _208
REMARK   83  A    between atoms: _208  and  _209
REMARK   84  A    between atoms: _209  and  _210
REMARK   85  A    between atoms: _210  and  _211
REMARK   86  A    between atoms: _215  and  _217
REMARK   87  A    between atoms: _217  and  _218
REMARK   88  A    between atoms: _221  and  _223
REMARK   89  A    between atoms: _223  and  _224
REMARK   90  A    between atoms: _226  and  _228
REMARK   91  A    between atoms: _228  and  _229
REMARK   92  A    between atoms: _228  and  _231
REMARK   93  A    between atoms: _231  and  _232
REMARK   94  A    between atoms: _237  and  _239
REMARK   95  A    between atoms: _239  and  _240
REMARK   96  A    between atoms: _239  and  _242
REMARK   97  A    between atoms: _242  and  _243
REMARK   98  A    between atoms: _243  and  _244
REMARK   99  A    between atoms: _247  and  _249
REMARK  100  A    between atoms: _249  and  _250
REMARK  101  A    between atoms: _249  and  _252
REMARK  102  A    between atoms: _252  and  _253
REMARK  103  A    between atoms: _253  and  _254
REMARK  104  A    between atoms: _259  and  _261
REMARK  105  A    between atoms: _261  and  _262
REMARK  106  A    between atoms: _261  and  _264
REMARK  107  A    between atoms: _264  and  _265
REMARK  108  A    between atoms: _267  and  _269
REMARK  109  A    between atoms: _269  and  _270
REMARK  110  A    between atoms: _269  and  _272
REMARK  111  A    between atoms: _272  and  _273
REMARK  112  A    between atoms: _279  and  _281
REMARK  113  A    between atoms: _281  and  _282
REMARK  114  A    between atoms: _281  and  _284
REMARK  115  A    between atoms: _284  and  _285
REMARK  116  A    between atoms: _285  and  _286
REMARK  117  A    between atoms: _286  and  _287
REMARK  118  A    between atoms: _296  and  _298
REMARK  119  A    between atoms: _298  and  _299
REMARK  120  A    between atoms: _298  and  _301
REMARK  121  A    between atoms: _304  and  _306
REMARK  122  A    between atoms: _306  and  _307
REMARK  123  A    between atoms: _306  and  _309
REMARK  124  A    between atoms: _309  and  _310
REMARK  125  A    between atoms: _313  and  _315
REMARK  126  A    between atoms: _315  and  _316
REMARK  127  A    between atoms: _315  and  _318
REMARK  128  A    between atoms: _318  and  _319
REMARK  129  A    between atoms: _322  and  _324
REMARK  130  A    between atoms: _324  and  _325
REMARK  131  A    between atoms: _324  and  _327
REMARK  132  A    between atoms: _327  and  _328
REMARK  133  A    between atoms: _331  and  _333
REMARK  134  A    between atoms: _333  and  _334
REMARK  135  A    between atoms: _333  and  _336
REMARK  136  A    between atoms: _336  and  _337
REMARK  137  A    between atoms: _340  and  _342
REMARK  138  A    between atoms: _342  and  _343
REMARK  139  A    between atoms: _342  and  _345
REMARK  140  A    between atoms: _345  and  _346
REMARK  141  A    between atoms: _351  and  _352
REMARK  142  A    between atoms: _354  and  _356
REMARK  143  A    between atoms: _356  and  _357
REMARK  144  A    between atoms: _356  and  _359
REMARK  145  A    between atoms: _359  and  _360
REMARK  146  A    between atoms: _363  and  _365
REMARK  147  A    between atoms: _365  and  _366
REMARK  148  A    between atoms: _365  and  _368
REMARK  149  A    between atoms: _371  and  _373
REMARK  150  A    between atoms: _373  and  _374
REMARK  151  A    between atoms: _373  and  _376
REMARK  152  A    between atoms: _376  and  _377
REMARK  153  A    between atoms: _380  and  _382
REMARK  154  A    between atoms: _382  and  _383
REMARK  155  A    between atoms: _382  and  _385
REMARK  156  A    between atoms: _385  and  _386
REMARK  157  A    between atoms: _388  and  _390
REMARK  158  A    between atoms: _390  and  _391
REMARK  159  A    between atoms: _393  and  _395
REMARK  160  A    between atoms: _395  and  _396
REMARK  161  A    between atoms: _395  and  _398
REMARK  162  A    between atoms: _398  and  _399
REMARK  163  A    between atoms: _399  and  _640
REMARK  164  A    between atoms: _400  and  _402
REMARK  165  A    between atoms: _402  and  _403
REMARK  166  A    between atoms: _402  and  _405
REMARK  167  A    between atoms: _405  and  _406
REMARK  168  A    between atoms: _411  and  _412
REMARK  169  A    between atoms: _414  and  _416
REMARK  170  A    between atoms: _416  and  _417
REMARK  171  A    between atoms: _416  and  _419
REMARK  172  A    between atoms: _419  and  _420
REMARK  173  A    between atoms: _420  and  _421
REMARK  174  A    between atoms: _426  and  _428
REMARK  175  A    between atoms: _428  and  _429
REMARK  176  A    between atoms: _428  and  _431
REMARK  177  A    between atoms: _431  and  _432
REMARK  178  A    between atoms: _437  and  _438
REMARK  179  A    between atoms: _440  and  _442
REMARK  180  A    between atoms: _442  and  _443
REMARK  181  A    between atoms: _442  and  _445
REMARK  182  A    between atoms: _445  and  _446
REMARK  183  A    between atoms: _451  and  _452
REMARK  184  A    between atoms: _454  and  _456
REMARK  185  A    between atoms: _456  and  _457
REMARK  186  A    between atoms: _456  and  _459
REMARK  187  A    between atoms: _459  and  _460
REMARK  188  A    between atoms: _463  and  _465
REMARK  189  A    between atoms: _465  and  _466
REMARK  190  A    between atoms: _469  and  _471
REMARK  191  A    between atoms: _471  and  _472
REMARK  192  A    between atoms: _475  and  _477
REMARK  193  A    between atoms: _477  and  _478
REMARK  194  A    between atoms: _477  and  _480
REMARK  195  A    between atoms: _480  and  _481
REMARK  196  A    between atoms: _484  and  _486
REMARK  197  A    between atoms: _486  and  _487
REMARK  198  A    between atoms: _486  and  _489
REMARK  199  A    between atoms: _489  and  _490
REMARK  200  A    between atoms: _493  and  _495
REMARK  201  A    between atoms: _495  and  _496
REMARK  202  A    between atoms: _495  and  _498
REMARK  203  A    between atoms: _498  and  _499
REMARK  204  A    between atoms: _502  and  _504
REMARK  205  A    between atoms: _504  and  _505
REMARK  206  A    between atoms: _504  and  _507
REMARK  207  A    between atoms: _507  and  _508
REMARK  208  A    between atoms: _508  and  _509
REMARK  209  A    between atoms: _509  and  _510
REMARK  210  A    between atoms: _510  and  _511
REMARK  211  A    between atoms: _515  and  _517
REMARK  212  A    between atoms: _517  and  _518
REMARK  213  A    between atoms: _517  and  _520
REMARK  214  A    between atoms: _520  and  _521
REMARK  215  A    between atoms: _526  and  _528
REMARK  216  A    between atoms: _528  and  _529
REMARK  217  A    between atoms: _528  and  _531
REMARK  218  A    between atoms: _531  and  _532
REMARK  219  A    between atoms: _532  and  _533
REMARK  220  A    between atoms: _533  and  _534
REMARK  221  A    between atoms: _534  and  _535
REMARK  222  A    between atoms: _539  and  _541
REMARK  223  A    between atoms: _541  and  _542
REMARK  224  A    between atoms: _541  and  _544
REMARK  225  A    between atoms: _544  and  _545
REMARK  226  A    between atoms: _555  and  _557
REMARK  227  A    between atoms: _557  and  _558
REMARK  228  A    between atoms: _561  and  _563
REMARK  229  A    between atoms: _563  and  _564
REMARK  230  A    between atoms: _566  and  _568
REMARK  231  A    between atoms: _568  and  _569
REMARK  232  A    between atoms: _568  and  _571
REMARK  233  A    between atoms: _571  and  _572
REMARK  234  A    between atoms: _572  and  _573
REMARK  235  A    between atoms: _576  and  _578
REMARK  236  A    between atoms: _578  and  _579
REMARK  237  A    between atoms: _578  and  _581
REMARK  238  A    between atoms: _581  and  _582
REMARK  239  A    between atoms: _582  and  _583
REMARK  240  A    between atoms: _583  and  _584
REMARK  241  A    between atoms: _593  and  _595
REMARK  242  A    between atoms: _595  and  _596
REMARK  243  A    between atoms: _595  and  _598
REMARK  244  A    between atoms: _598  and  _599
REMARK  245  A    between atoms: _602  and  _604
REMARK  246  A    between atoms: _604  and  _605
REMARK  247  A    between atoms: _604  and  _607
REMARK  248  A    between atoms: _607  and  _608
REMARK  249  A    between atoms: _613  and  _614
REMARK  250  A    between atoms: _616  and  _618
REMARK  251  A    between atoms: _618  and  _619
REMARK  252  A    between atoms: _618  and  _621
REMARK  253  A    between atoms: _621  and  _622
REMARK  254  A    between atoms: _625  and  _627
REMARK  255  A    between atoms: _627  and  _628
REMARK  256  A    between atoms: _627  and  _630
REMARK  257  A    between atoms: _630  and  _631
REMARK  258  A    between atoms: _634  and  _636
REMARK  259  A    between atoms: _636  and  _637
REMARK  260  A    between atoms: _636  and  _639
REMARK  261  A    between atoms: _639  and  _640
REMARK  262  A    between atoms: _641  and  _643
REMARK  263  A    between atoms: _643  and  _644
REMARK  264  A    between atoms: _643  and  _646
REMARK  265  A    between atoms: _649  and  _651
REMARK  266  A    between atoms: _651  and  _652
REMARK  267  A    between atoms: _651  and  _654
REMARK  268  A    between atoms: _654  and  _655
REMARK  269  A    between atoms: _655  and  _656
REMARK  270  A    between atoms: _659  and  _661
REMARK  271  A    between atoms: _661  and  _662
REMARK  272  A    between atoms: _661  and  _664
REMARK  273  A    between atoms: _664  and  _665
REMARK  274  A    between atoms: _675  and  _677
REMARK  275  A    between atoms: _677  and  _678
REMARK  276  A    between atoms: _677  and  _680
REMARK  277  A    between atoms: _680  and  _681
REMARK  278  A    between atoms: _684  and  _686
REMARK  279  A    between atoms: _686  and  _687
REMARK  280  A    between atoms: _686  and  _689
REMARK  281  A    between atoms: _689  and  _690
REMARK  282  A    between atoms: _695  and  _696
REMARK                            x       y       z     vdW  Elec       q    Type
REMARK                         _______ _______ _______ _____ _____    ______ ____
ROOT
ATOM      1  CG  TYR A   1      35.261  53.376  -0.764  0.00  0.00    -0.020 A 
ATOM      2  CD2 TYR A   1      35.918  54.082   0.241  0.00  0.00    -0.001 A 
ATOM      3  CE2 TYR A   1      37.186  54.619   0.028  0.00  0.00    +0.036 A 
ATOM      4  CZ  TYR A   1      37.796  54.450  -1.206  0.00  0.00    +0.134 A 
ATOM      5  CE1 TYR A   1      37.156  53.756  -2.215  0.00  0.00    +0.036 A 
ATOM      6  CD1 TYR A   1      35.900  53.224  -1.991  0.00  0.00    -0.001 A 
ENDROOT
BRANCH   4   7
ATOM      7  OH  TYR A   1      39.045  54.965  -1.441  0.00  0.00    -0.506 OA
ATOM      8  HH  TYR A   1      39.690  54.568  -0.803  0.00  0.00    +0.292 HD
ENDBRANCH   4   7
BRANCH   1   9
ATOM      9  CB  TYR A   1      33.923  52.743  -0.518  0.00  0.00    +0.051 C 
BRANCH   9  10
ATOM     10  CA  TYR A   1      34.015  51.224  -0.418  0.00  0.00    +0.137 C 
BRANCH  10  11
ATOM     11  N   TYR A   1      32.700  50.659  -0.197  0.00  0.00    -0.239 NA
ATOM     12  H   TYR A   1      32.217  50.837   0.707  0.00  0.00    +0.142 HD
ENDBRANCH  10  11
BRANCH  10  13
ATOM     13  C   TYR A   1      34.931  50.856   0.734  0.00  0.00    +0.224 C 
ATOM     14  O   TYR A   1      34.603  51.092   1.898  0.00  0.00    -0.287 OA
ENDBRANCH  10  13
ENDBRANCH   9  10
ENDBRANCH   1   9
TORSDOF 5
REMARK  Name = ../refined-set-2016/1g7q/1g7q_pocket.pdb
REMARK  282 active torsions:
REMARK  status: ('A' for Active; 'I' for Inactive)
REMARK    1  A    between atoms: _1  and  _3
REMARK    2  A    between atoms: _3  and  _4
REMARK    3  A    between atoms: _3  and  _6
REMARK    4  A    between atoms: _6  and  _7
REMARK    5  A    between atoms: _10  and  _12
REMARK    6  A    between atoms: _12  and  _13
REMARK    7  A    between atoms: _12  and  _15
REMARK    8  A    between atoms: _15  and  _16
REMARK    9  A    between atoms: _16  and  _17
REMARK   10  A    between atoms: _17  and  _18
REMARK   11  A    between atoms: _27  and  _29
REMARK   12  A    between atoms: _29  and  _30
REMARK   13  A    between atoms: _29  and  _32
REMARK   14  A    between atoms: _32  and  _33
REMARK   15  A    between atoms: _38  and  _39
REMARK   16  A    between atoms: _41  and  _43
REMARK   17  A    between atoms: _43  and  _44
REMARK   18  A    between atoms: _43  and  _46
REMARK   19  A    between atoms: _46  and  _47
REMARK   20  A    between atoms: _53  and  _55
REMARK   21  A    between atoms: _55  and  _56
REMARK   22  A    between atoms: _55  and  _58
REMARK   23  A    between atoms: _61  and  _63
REMARK   24  A    between atoms: _63  and  _64
REMARK   25  A    between atoms: _63  and  _66
REMARK   26  A    between atoms: _66  and  _67
REMARK   27  A    between atoms: _72  and  _73
REMARK   28  A    between atoms: _75  and  _77
REMARK   29  A    between atoms: _77  and  _78
REMARK   30  A    between atoms: _77  and  _80
REMARK   31  A    between atoms: _80  and  _81
REMARK   32  A    between atoms: _81  and  _82
REMARK   33  A    between atoms: _85  and  _87
REMARK   34  A    between atoms: _87  and  _88
REMARK   35  A    between atoms: _87  and  _90
REMARK   36  A    between atoms: _93  and  _95
REMARK   37  A    between atoms: _95  and  _96
REMARK   38  A    between atoms: _98  and  _100
REMARK   39  A    between atoms: _100  and  _101
REMARK   40  A    between atoms: _100  and  _103
REMARK   41  A    between atoms: _106  and  _108
REMARK   42  A    between atoms: _108  and  _109
REMARK   43  A    between atoms: _108  and  _111
REMARK   44  A    between atoms: _111  and  _112
REMARK   45  A    between atoms: _118  and  _120
REMARK   46  A    between atoms: _120  and  _121
REMARK   47  A    between atoms: _120  and  _123
REMARK   48  A    between atoms: _126  and  _128
REMARK   49  A    between atoms: _128  and  _129
REMARK   50  A    between atoms: _128  and  _131
REMARK   51  A    between atoms: _131  and  _132
REMARK   52  A    between atoms: _137  and  _138
REMARK   53  A    between atoms: _140  and  _142
REMARK   54  A    between atoms: _142  and  _143
REMARK   55  A    between atoms: _142  and  _145
REMARK   56  A    between atoms: _145  and  _146
REMARK   57  A    between atoms: _146  and  _147
REMARK   58  A    between atoms: _149  and  _151
REMARK   59  A    between atoms: _151  and  _152
REMARK   60  A    between atoms: _151  and  _154
REMARK   61  A    between atoms: _154  and  _155
REMARK   62  A    between atoms: _160  and  _161
REMARK   63  A    between atoms: _163  and  _165
REMARK   64  A    between atoms: _165  and  _166
REMARK   65  A    between atoms: _165  and  _168
REMARK   66  A    between atoms: _168  and  _169
REMARK   67  A    between atoms: _169  and  _170
REMARK   68  A    between atoms: _170  and  _171
REMARK   69  A    between atoms: _180  and  _182
REMARK   70  A    between atoms: _182  and  _183
REMARK   71  A    between atoms: _182  and  _185
REMARK   72  A    between atoms: _185  and  _186
REMARK   73  A    between atoms: _186  and  _187
REMARK   74  A    between atoms: _190  and  _192
REMARK   75  A    between atoms: _192  and  _193
REMARK   76  A    between atoms: _192  and  _195
REMARK   77  A    between atoms: _195  and  _196
REMARK   78  A    between atoms: _196  and  _197
REMARK   79  A    between atoms: _202  and  _204
REMARK   80  A    between atoms: _204  and  _205
REMARK   81  A    between atoms: _204  and  _207
REMARK   82  A    between atoms: _207  and  _208
REMARK   83  A    between atoms: _208  and  _209
REMARK   84  A    between atoms: _209  and  _210
REMARK   85  A    between atoms: _210  and  _211
REMARK   86  A    between atoms: _215  and  _217
REMARK   87  A    between atoms: _217  and  _218
REMARK   88  A    between atoms: _221  and  _223
REMARK   89  A    between atoms: _223  and  _224
REMARK   90  A    between atoms: _226  and  _228
REMARK   91  A    between atoms: _228  and  _229
REMARK   92  A    between atoms: _228  and  _231
REMARK   93  A    between atoms: _231  and  _232
REMARK   94  A    between atoms: _237  and  _239
REMARK   95  A    between atoms: _239  and  _240
REMARK   96  A    between atoms: _239  and  _242
REMARK   97  A    between atoms: _242  and  _243
REMARK   98  A    between atoms: _243  and  _244
REMARK   99  A    between atoms: _247  and  _249
REMARK  100  A    between atoms: _249  and  _250
REMARK  101  A    between atoms: _249  and  _252
REMARK  102  A    between atoms: _252  and  _253
REMARK  103  A    between atoms: _253  and  _254
REMARK  104  A    between atoms: _259  and  _261
REMARK  105  A    between atoms: _261  and  _262
REMARK  106  A    between atoms: _261  and  _264
REMARK  107  A    between atoms: _264  and  _265
REMARK  108  A    between atoms: _267  and  _269
REMARK  109  A    between atoms: _269  and  _270
REMARK  110  A    between atoms: _269  and  _272
REMARK  111  A    between atoms: _272  and  _273
REMARK  112  A    between atoms: _279  and  _281
REMARK  113  A    between atoms: _281  and  _282
REMARK  114  A    between atoms: _281  and  _284
REMARK  115  A    between atoms: _284  and  _285
REMARK  116  A    between atoms: _285  and  _286
REMARK  117  A    between atoms: _286  and  _287
REMARK  118  A    between atoms: _296  and  _298
REMARK  119  A    between atoms: _298  and  _299
REMARK  120  A    between atoms: _298  and  _301
REMARK  121  A    between atoms: _304  and  _306
REMARK  122  A    between atoms: _306  and  _307
REMARK  123  A    between atoms: _306  and  _309
REMARK  124  A    between atoms: _309  and  _310
REMARK  125  A    between atoms: _313  and  _315
REMARK  126  A    between atoms: _315  and  _316
REMARK  127  A    between atoms: _315  and  _318
REMARK  128  A    between atoms: _318  and  _319
REMARK  129  A    between atoms: _322  and  _324
REMARK  130  A    between atoms: _324  and  _325
REMARK  131  A    between atoms: _324  and  _327
REMARK  132  A    between atoms: _327  and  _328
REMARK  133  A    between atoms: _331  and  _333
REMARK  134  A    between atoms: _333  and  _334
REMARK  135  A    between atoms: _333  and  _336
REMARK  136  A    between atoms: _336  and  _337
REMARK  137  A    between atoms: _340  and  _342
REMARK  138  A    between atoms: _342  and  _343
REMARK  139  A    between atoms: _342  and  _345
REMARK  140  A    between atoms: _345  and  _346
REMARK  141  A    between atoms: _351  and  _352
REMARK  142  A    between atoms: _354  and  _356
REMARK  143  A    between atoms: _356  and  _357
REMARK  144  A    between atoms: _356  and  _359
REMARK  145  A    between atoms: _359  and  _360
REMARK  146  A    between atoms: _363  and  _365
REMARK  147  A    between atoms: _365  and  _366
REMARK  148  A    between atoms: _365  and  _368
REMARK  149  A    between atoms: _371  and  _373
REMARK  150  A    between atoms: _373  and  _374
REMARK  151  A    between atoms: _373  and  _376
REMARK  152  A    between atoms: _376  and  _377
REMARK  153  A    between atoms: _380  and  _382
REMARK  154  A    between atoms: _382  and  _383
REMARK  155  A    between atoms: _382  and  _385
REMARK  156  A    between atoms: _385  and  _386
REMARK  157  A    between atoms: _388  and  _390
REMARK  158  A    between atoms: _390  and  _391
REMARK  159  A    between atoms: _393  and  _395
REMARK  160  A    between atoms: _395  and  _396
REMARK  161  A    between atoms: _395  and  _398
REMARK  162  A    between atoms: _398  and  _399
REMARK  163  A    between atoms: _399  and  _640
REMARK  164  A    between atoms: _400  and  _402
REMARK  165  A    between atoms: _402  and  _403
REMARK  166  A    between atoms: _402  and  _405
REMARK  167  A    between atoms: _405  and  _406
REMARK  168  A    between atoms: _411  and  _412
REMARK  169  A    between atoms: _414  and  _416
REMARK  170  A    between atoms: _416  and  _417
REMARK  171  A    between atoms: _416  and  _419
REMARK  172  A    between atoms: _419  and  _420
REMARK  173  A    between atoms: _420  and  _421
REMARK  174  A    between atoms: _426  and  _428
REMARK  175  A    between atoms: _428  and  _429
REMARK  176  A    between atoms: _428  and  _431
REMARK  177  A    between atoms: _431  and  _432
REMARK  178  A    between atoms: _437  and  _438
REMARK  179  A    between atoms: _440  and  _442
REMARK  180  A    between atoms: _442  and  _443
REMARK  181  A    between atoms: _442  and  _445
REMARK  182  A    between atoms: _445  and  _446
REMARK  183  A    between atoms: _451  and  _452
REMARK  184  A    between atoms: _454  and  _456
REMARK  185  A    between atoms: _456  and  _457
REMARK  186  A    between atoms: _456  and  _459
REMARK  187  A    between atoms: _459  and  _460
REMARK  188  A    between atoms: _463  and  _465
REMARK  189  A    between atoms: _465  and  _466
REMARK  190  A    between atoms: _469  and  _471
REMARK  191  A    between atoms: _471  and  _472
REMARK  192  A    between atoms: _475  and  _477
REMARK  193  A    between atoms: _477  and  _478
REMARK  194  A    between atoms: _477  and  _480
REMARK  195  A    between atoms: _480  and  _481
REMARK  196  A    between atoms: _484  and  _486
REMARK  197  A    between atoms: _486  and  _487
REMARK  198  A    between atoms: _486  and  _489
REMARK  199  A    between atoms: _489  and  _490
REMARK  200  A    between atoms: _493  and  _495
REMARK  201  A    between atoms: _495  and  _496
REMARK  202  A    between atoms: _495  and  _498
REMARK  203  A    between atoms: _498  and  _499
REMARK  204  A    between atoms: _502  and  _504
REMARK  205  A    between atoms: _504  and  _505
REMARK  206  A    between atoms: _504  and  _507
REMARK  207  A    between atoms: _507  and  _508
REMARK  208  A    between atoms: _508  and  _509
REMARK  209  A    between atoms: _509  and  _510
REMARK  210  A    between atoms: _510  and  _511
REMARK  211  A    between atoms: _515  and  _517
REMARK  212  A    between atoms: _517  and  _518
REMARK  213  A    between atoms: _517  and  _520
REMARK  214  A    between atoms: _520  and  _521
REMARK  215  A    between atoms: _526  and  _528
REMARK  216  A    between atoms: _528  and  _529
REMARK  217  A    between atoms: _528  and  _531
REMARK  218  A    between atoms: _531  and  _532
REMARK  219  A    between atoms: _532  and  _533
REMARK  220  A    between atoms: _533  and  _534
REMARK  221  A    between atoms: _534  and  _535
REMARK  222  A    between atoms: _539  and  _541
REMARK  223  A    between atoms: _541  and  _542
REMARK  224  A    between atoms: _541  and  _544
REMARK  225  A    between atoms: _544  and  _545
REMARK  226  A    between atoms: _555  and  _557
REMARK  227  A    between atoms: _557  and  _558
REMARK  228  A    between atoms: _561  and  _563
REMARK  229  A    between atoms: _563  and  _564
REMARK  230  A    between atoms: _566  and  _568
REMARK  231  A    between atoms: _568  and  _569
REMARK  232  A    between atoms: _568  and  _571
REMARK  233  A    between atoms: _571  and  _572
REMARK  234  A    between atoms: _572  and  _573
REMARK  235  A    between atoms: _576  and  _578
REMARK  236  A    between atoms: _578  and  _579
REMARK  237  A    between atoms: _578  and  _581
REMARK  238  A    between atoms: _581  and  _582
REMARK  239  A    between atoms: _582  and  _583
REMARK  240  A    between atoms: _583  and  _584
REMARK  241  A    between atoms: _593  and  _595
REMARK  242  A    between atoms: _595  and  _596
REMARK  243  A    between atoms: _595  and  _598
REMARK  244  A    between atoms: _598  and  _599
REMARK  245  A    between atoms: _602  and  _604
REMARK  246  A    between atoms: _604  and  _605
REMARK  247  A    between atoms: _604  and  _607
REMARK  248  A    between atoms: _607  and  _608
REMARK  249  A    between atoms: _613  and  _614
REMARK  250  A    between atoms: _616  and  _618
REMARK  251  A    between atoms: _618  and  _619
REMARK  252  A    between atoms: _618  and  _621
REMARK  253  A    between atoms: _621  and  _622
REMARK  254  A    between atoms: _625  and  _627
REMARK  255  A    between atoms: _627  and  _628
REMARK  256  A    between atoms: _627  and  _630
REMARK  257  A    between atoms: _630  and  _631
REMARK  258  A    between atoms: _634  and  _636
REMARK  259  A    between atoms: _636  and  _637
REMARK  260  A    between atoms: _636  and  _639
REMARK  261  A    between atoms: _639  and  _640
REMARK  262  A    between atoms: _641  and  _643
REMARK  263  A    between atoms: _643  and  _644
REMARK  264  A    between atoms: _643  and  _646
REMARK  265  A    between atoms: _649  and  _651
REMARK  266  A    between atoms: _651  and  _652
REMARK  267  A    between atoms: _651  and  _654
REMARK  268  A    between atoms: _654  and  _655
REMARK  269  A    between atoms: _655  and  _656
REMARK  270  A    between atoms: _659  and  _661
REMARK  271  A    between atoms: _661  and  _662
REMARK  272  A    between atoms: _661  and  _664
REMARK  273  A    between atoms: _664  and  _665
REMARK  274  A    between atoms: _675  and  _677
REMARK  275  A    between atoms: _677  and  _678
REMARK  276  A    between atoms: _677  and  _680
REMARK  277  A    between atoms: _680  and  _681
REMARK  278  A    between atoms: _684  and  _686
REMARK  279  A    between atoms: _686  and  _687
REMARK  280  A    between atoms: _686  and  _689
REMARK  281  A    between atoms: _689  and  _690
REMARK  282  A    between atoms: _695  and  _696
REMARK                            x       y       z     vdW  Elec       q    Type
REMARK                         _______ _______ _______ _____ _____    ______ ____
ROOT
ATOM      1  C   GLU A   1      41.367  50.260   3.010  0.00  0.00    +0.238 C 
ATOM      2  O   GLU A   1      40.973  50.318   4.170  0.00  0.00    -0.274 OA
ATOM      3  N   VAL A   2      42.404  49.517   2.641  0.00  0.00    -0.297 N 
ATOM      4  H   VAL A   2      42.662  49.454   1.635  0.00  0.00    +0.150 HD
ENDROOT
BRANCH   1   5
ATOM      5  CA  GLU A   1      40.637  51.028   1.919  0.00  0.00    +0.145 C 
BRANCH   5   6
ATOM      6  N   GLU A   1      39.231  50.667   2.065  0.00  0.00    -0.238 NA
ATOM      7  H   GLU A   1      38.804  50.708   3.013  0.00  0.00    +0.142 HD
ENDBRANCH   5   6
BRANCH   5   8
ATOM      8  CB  GLU A   1      40.873  52.526   2.145  0.00  0.00    +0.038 C 
BRANCH   8   9
ATOM      9  CG  GLU A   1      40.423  53.427   1.012  0.00  0.00    +0.116 C 
BRANCH   9  10
ATOM     10  CD  GLU A   1      40.846  54.874   1.211  0.00  0.00    +0.365 C 
ATOM     11  OE2 GLU A   1      41.734  55.136   2.054  0.00  0.00    -0.246 OA
ATOM     12  OE1 GLU A   1      40.295  55.749   0.512  0.00  0.00    -0.246 OA
ENDBRANCH   9  10
ENDBRANCH   8   9
ENDBRANCH   5   8
ENDBRANCH   1   5
BRANCH   3  13
ATOM     13  CA  VAL A   2      43.183  48.789   3.634  0.00  0.00    +0.148 C 
BRANCH  13  14
ATOM     14  C   VAL A   2      44.647  49.115   3.387  0.00  0.00    +0.241 C 
ATOM     15  N   GLY A   3      45.323  49.595   4.425  0.00  0.00    -0.296 N 
ATOM     16  H   GLY A   3      44.844  49.718   5.340  0.00  0.00    +0.150 HD
ATOM     17  O   VAL A   2      45.150  48.953   2.272  0.00  0.00    -0.273 OA
BRANCH  15  18
ATOM     18  CA  GLY A   3      46.722  49.949   4.293  0.00  0.00    +0.163 C 
BRANCH  18  19
ATOM     19  C   GLY A   3      47.665  48.969   4.959  0.00  0.00    +0.229 C 
ATOM     20  O   GLY A   3      47.339  48.368   5.985  0.00  0.00    -0.286 OA
ENDBRANCH  18  19
ENDBRANCH  15  18
ENDBRANCH  13  14
BRANCH  13  21
ATOM     21  CB  VAL A   2      42.988  47.264   3.534  0.00  0.00    +0.027 C 
ATOM     22  CG2 VAL A   2      43.657  46.587   4.724  0.00  0.00    +0.002 C 
ATOM     23  CG1 VAL A   2      41.511  46.926   3.494  0.00  0.00    +0.002 C 
ENDBRANCH  13  21
ENDBRANCH   3  13
TORSDOF 10
REMARK  Name = ../refined-set-2016/1g7q/1g7q_pocket.pdb
REMARK  282 active torsions:
REMARK  status: ('A' for Active; 'I' for Inactive)
REMARK    1  A    between atoms: _1  and  _3
REMARK    2  A    between atoms: _3  and  _4
REMARK    3  A    between atoms: _3  and  _6
REMARK    4  A    between atoms: _6  and  _7
REMARK    5  A    between atoms: _10  and  _12
REMARK    6  A    between atoms: _12  and  _13
REMARK    7  A    between atoms: _12  and  _15
REMARK    8  A    between atoms: _15  and  _16
REMARK    9  A    between atoms: _16  and  _17
REMARK   10  A    between atoms: _17  and  _18
REMARK   11  A    between atoms: _27  and  _29
REMARK   12  A    between atoms: _29  and  _30
REMARK   13  A    between atoms: _29  and  _32
REMARK   14  A    between atoms: _32  and  _33
REMARK   15  A    between atoms: _38  and  _39
REMARK   16  A    between atoms: _41  and  _43
REMARK   17  A    between atoms: _43  and  _44
REMARK   18  A    between atoms: _43  and  _46
REMARK   19  A    between atoms: _46  and  _47
REMARK   20  A    between atoms: _53  and  _55
REMARK   21  A    between atoms: _55  and  _56
REMARK   22  A    between atoms: _55  and  _58
REMARK   23  A    between atoms: _61  and  _63
REMARK   24  A    between atoms: _63  and  _64
REMARK   25  A    between atoms: _63  and  _66
REMARK   26  A    between atoms: _66  and  _67
REMARK   27  A    between atoms: _72  and  _73
REMARK   28  A    between atoms: _75  and  _77
REMARK   29  A    between atoms: _77  and  _78
REMARK   30  A    between atoms: _77  and  _80
REMARK   31  A    between atoms: _80  and  _81
REMARK   32  A    between atoms: _81  and  _82
REMARK   33  A    between atoms: _85  and  _87
REMARK   34  A    between atoms: _87  and  _88
REMARK   35  A    between atoms: _87  and  _90
REMARK   36  A    between atoms: _93  and  _95
REMARK   37  A    between atoms: _95  and  _96
REMARK   38  A    between atoms: _98  and  _100
REMARK   39  A    between atoms: _100  and  _101
REMARK   40  A    between atoms: _100  and  _103
REMARK   41  A    between atoms: _106  and  _108
REMARK   42  A    between atoms: _108  and  _109
REMARK   43  A    between atoms: _108  and  _111
REMARK   44  A    between atoms: _111  and  _112
REMARK   45  A    between atoms: _118  and  _120
REMARK   46  A    between atoms: _120  and  _121
REMARK   47  A    between atoms: _120  and  _123
REMARK   48  A    between atoms: _126  and  _128
REMARK   49  A    between atoms: _128  and  _129
REMARK   50  A    between atoms: _128  and  _131
REMARK   51  A    between atoms: _131  and  _132
REMARK   52  A    between atoms: _137  and  _138
REMARK   53  A    between atoms: _140  and  _142
REMARK   54  A    between atoms: _142  and  _143
REMARK   55  A    between atoms: _142  and  _145
REMARK   56  A    between atoms: _145  and  _146
REMARK   57  A    between atoms: _146  and  _147
REMARK   58  A    between atoms: _149  and  _151
REMARK   59  A    between atoms: _151  and  _152
REMARK   60  A    between atoms: _151  and  _154
REMARK   61  A    between atoms: _154  and  _155
REMARK   62  A    between atoms: _160  and  _161
REMARK   63  A    between atoms: _163  and  _165
REMARK   64  A    between atoms: _165  and  _166
REMARK   65  A    between atoms: _165  and  _168
REMARK   66  A    between atoms: _168  and  _169
REMARK   67  A    between atoms: _169  and  _170
REMARK   68  A    between atoms: _170  and  _171
REMARK   69  A    between atoms: _180  and  _182
REMARK   70  A    between atoms: _182  and  _183
REMARK   71  A    between atoms: _182  and  _185
REMARK   72  A    between atoms: _185  and  _186
REMARK   73  A    between atoms: _186  and  _187
REMARK   74  A    between atoms: _190  and  _192
REMARK   75  A    between atoms: _192  and  _193
REMARK   76  A    between atoms: _192  and  _195
REMARK   77  A    between atoms: _195  and  _196
REMARK   78  A    between atoms: _196  and  _197
REMARK   79  A    between atoms: _202  and  _204
REMARK   80  A    between atoms: _204  and  _205
REMARK   81  A    between atoms: _204  and  _207
REMARK   82  A    between atoms: _207  and  _208
REMARK   83  A    between atoms: _208  and  _209
REMARK   84  A    between atoms: _209  and  _210
REMARK   85  A    between atoms: _210  and  _211
REMARK   86  A    between atoms: _215  and  _217
REMARK   87  A    between atoms: _217  and  _218
REMARK   88  A    between atoms: _221  and  _223
REMARK   89  A    between atoms: _223  and  _224
REMARK   90  A    between atoms: _226  and  _228
REMARK   91  A    between atoms: _228  and  _229
REMARK   92  A    between atoms: _228  and  _231
REMARK   93  A    between atoms: _231  and  _232
REMARK   94  A    between atoms: _237  and  _239
REMARK   95  A    between atoms: _239  and  _240
REMARK   96  A    between atoms: _239  and  _242
REMARK   97  A    between atoms: _242  and  _243
REMARK   98  A    between atoms: _243  and  _244
REMARK   99  A    between atoms: _247  and  _249
REMARK  100  A    between atoms: _249  and  _250
REMARK  101  A    between atoms: _249  and  _252
REMARK  102  A    between atoms: _252  and  _253
REMARK  103  A    between atoms: _253  and  _254
REMARK  104  A    between atoms: _259  and  _261
REMARK  105  A    between atoms: _261  and  _262
REMARK  106  A    between atoms: _261  and  _264
REMARK  107  A    between atoms: _264  and  _265
REMARK  108  A    between atoms: _267  and  _269
REMARK  109  A    between atoms: _269  and  _270
REMARK  110  A    between atoms: _269  and  _272
REMARK  111  A    between atoms: _272  and  _273
REMARK  112  A    between atoms: _279  and  _281
REMARK  113  A    between atoms: _281  and  _282
REMARK  114  A    between atoms: _281  and  _284
REMARK  115  A    between atoms: _284  and  _285
REMARK  116  A    between atoms: _285  and  _286
REMARK  117  A    between atoms: _286  and  _287
REMARK  118  A    between atoms: _296  and  _298
REMARK  119  A    between atoms: _298  and  _299
REMARK  120  A    between atoms: _298  and  _301
REMARK  121  A    between atoms: _304  and  _306
REMARK  122  A    between atoms: _306  and  _307
REMARK  123  A    between atoms: _306  and  _309
REMARK  124  A    between atoms: _309  and  _310
REMARK  125  A    between atoms: _313  and  _315
REMARK  126  A    between atoms: _315  and  _316
REMARK  127  A    between atoms: _315  and  _318
REMARK  128  A    between atoms: _318  and  _319
REMARK  129  A    between atoms: _322  and  _324
REMARK  130  A    between atoms: _324  and  _325
REMARK  131  A    between atoms: _324  and  _327
REMARK  132  A    between atoms: _327  and  _328
REMARK  133  A    between atoms: _331  and  _333
REMARK  134  A    between atoms: _333  and  _334
REMARK  135  A    between atoms: _333  and  _336
REMARK  136  A    between atoms: _336  and  _337
REMARK  137  A    between atoms: _340  and  _342
REMARK  138  A    between atoms: _342  and  _343
REMARK  139  A    between atoms: _342  and  _345
REMARK  140  A    between atoms: _345  and  _346
REMARK  141  A    between atoms: _351  and  _352
REMARK  142  A    between atoms: _354  and  _356
REMARK  143  A    between atoms: _356  and  _357
REMARK  144  A    between atoms: _356  and  _359
REMARK  145  A    between atoms: _359  and  _360
REMARK  146  A    between atoms: _363  and  _365
REMARK  147  A    between atoms: _365  and  _366
REMARK  148  A    between atoms: _365  and  _368
REMARK  149  A    between atoms: _371  and  _373
REMARK  150  A    between atoms: _373  and  _374
REMARK  151  A    between atoms: _373  and  _376
REMARK  152  A    between atoms: _376  and  _377
REMARK  153  A    between atoms: _380  and  _382
REMARK  154  A    between atoms: _382  and  _383
REMARK  155  A    between atoms: _382  and  _385
REMARK  156  A    between atoms: _385  and  _386
REMARK  157  A    between atoms: _388  and  _390
REMARK  158  A    between atoms: _390  and  _391
REMARK  159  A    between atoms: _393  and  _395
REMARK  160  A    between atoms: _395  and  _396
REMARK  161  A    between atoms: _395  and  _398
REMARK  162  A    between atoms: _398  and  _399
REMARK  163  A    between atoms: _399  and  _640
REMARK  164  A    between atoms: _400  and  _402
REMARK  165  A    between atoms: _402  and  _403
REMARK  166  A    between atoms: _402  and  _405
REMARK  167  A    between atoms: _405  and  _406
REMARK  168  A    between atoms: _411  and  _412
REMARK  169  A    between atoms: _414  and  _416
REMARK  170  A    between atoms: _416  and  _417
REMARK  171  A    between atoms: _416  and  _419
REMARK  172  A    between atoms: _419  and  _420
REMARK  173  A    between atoms: _420  and  _421
REMARK  174  A    between atoms: _426  and  _428
REMARK  175  A    between atoms: _428  and  _429
REMARK  176  A    between atoms: _428  and  _431
REMARK  177  A    between atoms: _431  and  _432
REMARK  178  A    between atoms: _437  and  _438
REMARK  179  A    between atoms: _440  and  _442
REMARK  180  A    between atoms: _442  and  _443
REMARK  181  A    between atoms: _442  and  _445
REMARK  182  A    between atoms: _445  and  _446
REMARK  183  A    between atoms: _451  and  _452
REMARK  184  A    between atoms: _454  and  _456
REMARK  185  A    between atoms: _456  and  _457
REMARK  186  A    between atoms: _456  and  _459
REMARK  187  A    between atoms: _459  and  _460
REMARK  188  A    between atoms: _463  and  _465
REMARK  189  A    between atoms: _465  and  _466
REMARK  190  A    between atoms: _469  and  _471
REMARK  191  A    between atoms: _471  and  _472
REMARK  192  A    between atoms: _475  and  _477
REMARK  193  A    between atoms: _477  and  _478
REMARK  194  A    between atoms: _477  and  _480
REMARK  195  A    between atoms: _480  and  _481
REMARK  196  A    between atoms: _484  and  _486
REMARK  197  A    between atoms: _486  and  _487
REMARK  198  A    between atoms: _486  and  _489
REMARK  199  A    between atoms: _489  and  _490
REMARK  200  A    between atoms: _493  and  _495
REMARK  201  A    between atoms: _495  and  _496
REMARK  202  A    between atoms: _495  and  _498
REMARK  203  A    between atoms: _498  and  _499
REMARK  204  A    between atoms: _502  and  _504
REMARK  205  A    between atoms: _504  and  _505
REMARK  206  A    between atoms: _504  and  _507
REMARK  207  A    between atoms: _507  and  _508
REMARK  208  A    between atoms: _508  and  _509
REMARK  209  A    between atoms: _509  and  _510
REMARK  210  A    between atoms: _510  and  _511
REMARK  211  A    between atoms: _515  and  _517
REMARK  212  A    between atoms: _517  and  _518
REMARK  213  A    between atoms: _517  and  _520
REMARK  214  A    between atoms: _520  and  _521
REMARK  215  A    between atoms: _526  and  _528
REMARK  216  A    between atoms: _528  and  _529
REMARK  217  A    between atoms: _528  and  _531
REMARK  218  A    between atoms: _531  and  _532
REMARK  219  A    between atoms: _532  and  _533
REMARK  220  A    between atoms: _533  and  _534
REMARK  221  A    between atoms: _534  and  _535
REMARK  222  A    between atoms: _539  and  _541
REMARK  223  A    between atoms: _541  and  _542
REMARK  224  A    between atoms: _541  and  _544
REMARK  225  A    between atoms: _544  and  _545
REMARK  226  A    between atoms: _555  and  _557
REMARK  227  A    between atoms: _557  and  _558
REMARK  228  A    between atoms: _561  and  _563
REMARK  229  A    between atoms: _563  and  _564
REMARK  230  A    between atoms: _566  and  _568
REMARK  231  A    between atoms: _568  and  _569
REMARK  232  A    between atoms: _568  and  _571
REMARK  233  A    between atoms: _571  and  _572
REMARK  234  A    between atoms: _572  and  _573
REMARK  235  A    between atoms: _576  and  _578
REMARK  236  A    between atoms: _578  and  _579
REMARK  237  A    between atoms: _578  and  _581
REMARK  238  A    between atoms: _581  and  _582
REMARK  239  A    between atoms: _582  and  _583
REMARK  240  A    between atoms: _583  and  _584
REMARK  241  A    between atoms: _593  and  _595
REMARK  242  A    between atoms: _595  and  _596
REMARK  243  A    between atoms: _595  and  _598
REMARK  244  A    between atoms: _598  and  _599
REMARK  245  A    between atoms: _602  and  _604
REMARK  246  A    between atoms: _604  and  _605
REMARK  247  A    between atoms: _604  and  _607
REMARK  248  A    between atoms: _607  and  _608
REMARK  249  A    between atoms: _613  and  _614
REMARK  250  A    between atoms: _616  and  _618
REMARK  251  A    between atoms: _618  and  _619
REMARK  252  A    between atoms: _618  and  _621
REMARK  253  A    between atoms: _621  and  _622
REMARK  254  A    between atoms: _625  and  _627
REMARK  255  A    between atoms: _627  and  _628
REMARK  256  A    between atoms: _627  and  _630
REMARK  257  A    between atoms: _630  and  _631
REMARK  258  A    between atoms: _634  and  _636
REMARK  259  A    between atoms: _636  and  _637
REMARK  260  A    between atoms: _636  and  _639
REMARK  261  A    between atoms: _639  and  _640
REMARK  262  A    between atoms: _641  and  _643
REMARK  263  A    between atoms: _643  and  _644
REMARK  264  A    between atoms: _643  and  _646
REMARK  265  A    between atoms: _649  and  _651
REMARK  266  A    between atoms: _651  and  _652
REMARK  267  A    between atoms: _651  and  _654
REMARK  268  A    between atoms: _654  and  _655
REMARK  269  A    between atoms: _655  and  _656
REMARK  270  A    between atoms: _659  and  _661
REMARK  271  A    between atoms: _661  and  _662
REMARK  272  A    between atoms: _661  and  _664
REMARK  273  A    between atoms: _664  and  _665
REMARK  274  A    between atoms: _675  and  _677
REMARK  275  A    between atoms: _677  and  _678
REMARK  276  A    between atoms: _677  and  _680
REMARK  277  A    between atoms: _680  and  _681
REMARK  278  A    between atoms: _684  and  _686
REMARK  279  A    between atoms: _686  and  _687
REMARK  280  A    between atoms: _686  and  _689
REMARK  281  A    between atoms: _689  and  _690
REMARK  282  A    between atoms: _695  and  _696
REMARK                            x       y       z     vdW  Elec       q    Type
REMARK                         _______ _______ _______ _____ _____    ______ ____
ROOT
ATOM      1  CA  VAL A   1      53.410  48.697   5.937  0.00  0.00    +0.133 C 
ENDROOT
BRANCH   1   2
ATOM      2  CB  VAL A   1      53.793  49.398   7.245  0.00  0.00    +0.023 C 
ATOM      3  CG2 VAL A   1      53.112  50.757   7.312  0.00  0.00    +0.002 C 
ATOM      4  CG1 VAL A   1      55.306  49.594   7.293  0.00  0.00    +0.002 C 
ENDBRANCH   1   2
BRANCH   1   5
ATOM      5  N   VAL A   1      52.022  48.271   5.905  0.00  0.00    -0.239 NA
ATOM      6  H   VAL A   1      51.637  47.725   6.702  0.00  0.00    +0.142 HD
ENDBRANCH   1   5
BRANCH   1   7
ATOM      7  C   VAL A   1      54.023  47.304   5.858  0.00  0.00    +0.224 C 
ATOM      8  O   VAL A   1      53.803  46.471   6.741  0.00  0.00    -0.287 OA
ENDBRANCH   1   7
TORSDOF 3
REMARK  Name = ../refined-set-2016/1g7q/1g7q_pocket.pdb
REMARK  282 active torsions:
REMARK  status: ('A' for Active; 'I' for Inactive)
REMARK    1  A    between atoms: _1  and  _3
REMARK    2  A    between atoms: _3  and  _4
REMARK    3  A    between atoms: _3  and  _6
REMARK    4  A    between atoms: _6  and  _7
REMARK    5  A    between atoms: _10  and  _12
REMARK    6  A    between atoms: _12  and  _13
REMARK    7  A    between atoms: _12  and  _15
REMARK    8  A    between atoms: _15  and  _16
REMARK    9  A    between atoms: _16  and  _17
REMARK   10  A    between atoms: _17  and  _18
REMARK   11  A    between atoms: _27  and  _29
REMARK   12  A    between atoms: _29  and  _30
REMARK   13  A    between atoms: _29  and  _32
REMARK   14  A    between atoms: _32  and  _33
REMARK   15  A    between atoms: _38  and  _39
REMARK   16  A    between atoms: _41  and  _43
REMARK   17  A    between atoms: _43  and  _44
REMARK   18  A    between atoms: _43  and  _46
REMARK   19  A    between atoms: _46  and  _47
REMARK   20  A    between atoms: _53  and  _55
REMARK   21  A    between atoms: _55  and  _56
REMARK   22  A    between atoms: _55  and  _58
REMARK   23  A    between atoms: _61  and  _63
REMARK   24  A    between atoms: _63  and  _64
REMARK   25  A    between atoms: _63  and  _66
REMARK   26  A    between atoms: _66  and  _67
REMARK   27  A    between atoms: _72  and  _73
REMARK   28  A    between atoms: _75  and  _77
REMARK   29  A    between atoms: _77  and  _78
REMARK   30  A    between atoms: _77  and  _80
REMARK   31  A    between atoms: _80  and  _81
REMARK   32  A    between atoms: _81  and  _82
REMARK   33  A    between atoms: _85  and  _87
REMARK   34  A    between atoms: _87  and  _88
REMARK   35  A    between atoms: _87  and  _90
REMARK   36  A    between atoms: _93  and  _95
REMARK   37  A    between atoms: _95  and  _96
REMARK   38  A    between atoms: _98  and  _100
REMARK   39  A    between atoms: _100  and  _101
REMARK   40  A    between atoms: _100  and  _103
REMARK   41  A    between atoms: _106  and  _108
REMARK   42  A    between atoms: _108  and  _109
REMARK   43  A    between atoms: _108  and  _111
REMARK   44  A    between atoms: _111  and  _112
REMARK   45  A    between atoms: _118  and  _120
REMARK   46  A    between atoms: _120  and  _121
REMARK   47  A    between atoms: _120  and  _123
REMARK   48  A    between atoms: _126  and  _128
REMARK   49  A    between atoms: _128  and  _129
REMARK   50  A    between atoms: _128  and  _131
REMARK   51  A    between atoms: _131  and  _132
REMARK   52  A    between atoms: _137  and  _138
REMARK   53  A    between atoms: _140  and  _142
REMARK   54  A    between atoms: _142  and  _143
REMARK   55  A    between atoms: _142  and  _145
REMARK   56  A    between atoms: _145  and  _146
REMARK   57  A    between atoms: _146  and  _147
REMARK   58  A    between atoms: _149  and  _151
REMARK   59  A    between atoms: _151  and  _152
REMARK   60  A    between atoms: _151  and  _154
REMARK   61  A    between atoms: _154  and  _155
REMARK   62  A    between atoms: _160  and  _161
REMARK   63  A    between atoms: _163  and  _165
REMARK   64  A    between atoms: _165  and  _166
REMARK   65  A    between atoms: _165  and  _168
REMARK   66  A    between atoms: _168  and  _169
REMARK   67  A    between atoms: _169  and  _170
REMARK   68  A    between atoms: _170  and  _171
REMARK   69  A    between atoms: _180  and  _182
REMARK   70  A    between atoms: _182  and  _183
REMARK   71  A    between atoms: _182  and  _185
REMARK   72  A    between atoms: _185  and  _186
REMARK   73  A    between atoms: _186  and  _187
REMARK   74  A    between atoms: _190  and  _192
REMARK   75  A    between atoms: _192  and  _193
REMARK   76  A    between atoms: _192  and  _195
REMARK   77  A    between atoms: _195  and  _196
REMARK   78  A    between atoms: _196  and  _197
REMARK   79  A    between atoms: _202  and  _204
REMARK   80  A    between atoms: _204  and  _205
REMARK   81  A    between atoms: _204  and  _207
REMARK   82  A    between atoms: _207  and  _208
REMARK   83  A    between atoms: _208  and  _209
REMARK   84  A    between atoms: _209  and  _210
REMARK   85  A    between atoms: _210  and  _211
REMARK   86  A    between atoms: _215  and  _217
REMARK   87  A    between atoms: _217  and  _218
REMARK   88  A    between atoms: _221  and  _223
REMARK   89  A    between atoms: _223  and  _224
REMARK   90  A    between atoms: _226  and  _228
REMARK   91  A    between atoms: _228  and  _229
REMARK   92  A    between atoms: _228  and  _231
REMARK   93  A    between atoms: _231  and  _232
REMARK   94  A    between atoms: _237  and  _239
REMARK   95  A    between atoms: _239  and  _240
REMARK   96  A    between atoms: _239  and  _242
REMARK   97  A    between atoms: _242  and  _243
REMARK   98  A    between atoms: _243  and  _244
REMARK   99  A    between atoms: _247  and  _249
REMARK  100  A    between atoms: _249  and  _250
REMARK  101  A    between atoms: _249  and  _252
REMARK  102  A    between atoms: _252  and  _253
REMARK  103  A    between atoms: _253  and  _254
REMARK  104  A    between atoms: _259  and  _261
REMARK  105  A    between atoms: _261  and  _262
REMARK  106  A    between atoms: _261  and  _264
REMARK  107  A    between atoms: _264  and  _265
REMARK  108  A    between atoms: _267  and  _269
REMARK  109  A    between atoms: _269  and  _270
REMARK  110  A    between atoms: _269  and  _272
REMARK  111  A    between atoms: _272  and  _273
REMARK  112  A    between atoms: _279  and  _281
REMARK  113  A    between atoms: _281  and  _282
REMARK  114  A    between atoms: _281  and  _284
REMARK  115  A    between atoms: _284  and  _285
REMARK  116  A    between atoms: _285  and  _286
REMARK  117  A    between atoms: _286  and  _287
REMARK  118  A    between atoms: _296  and  _298
REMARK  119  A    between atoms: _298  and  _299
REMARK  120  A    between atoms: _298  and  _301
REMARK  121  A    between atoms: _304  and  _306
REMARK  122  A    between atoms: _306  and  _307
REMARK  123  A    between atoms: _306  and  _309
REMARK  124  A    between atoms: _309  and  _310
REMARK  125  A    between atoms: _313  and  _315
REMARK  126  A    between atoms: _315  and  _316
REMARK  127  A    between atoms: _315  and  _318
REMARK  128  A    between atoms: _318  and  _319
REMARK  129  A    between atoms: _322  and  _324
REMARK  130  A    between atoms: _324  and  _325
REMARK  131  A    between atoms: _324  and  _327
REMARK  132  A    between atoms: _327  and  _328
REMARK  133  A    between atoms: _331  and  _333
REMARK  134  A    between atoms: _333  and  _334
REMARK  135  A    between atoms: _333  and  _336
REMARK  136  A    between atoms: _336  and  _337
REMARK  137  A    between atoms: _340  and  _342
REMARK  138  A    between atoms: _342  and  _343
REMARK  139  A    between atoms: _342  and  _345
REMARK  140  A    between atoms: _345  and  _346
REMARK  141  A    between atoms: _351  and  _352
REMARK  142  A    between atoms: _354  and  _356
REMARK  143  A    between atoms: _356  and  _357
REMARK  144  A    between atoms: _356  and  _359
REMARK  145  A    between atoms: _359  and  _360
REMARK  146  A    between atoms: _363  and  _365
REMARK  147  A    between atoms: _365  and  _366
REMARK  148  A    between atoms: _365  and  _368
REMARK  149  A    between atoms: _371  and  _373
REMARK  150  A    between atoms: _373  and  _374
REMARK  151  A    between atoms: _373  and  _376
REMARK  152  A    between atoms: _376  and  _377
REMARK  153  A    between atoms: _380  and  _382
REMARK  154  A    between atoms: _382  and  _383
REMARK  155  A    between atoms: _382  and  _385
REMARK  156  A    between atoms: _385  and  _386
REMARK  157  A    between atoms: _388  and  _390
REMARK  158  A    between atoms: _390  and  _391
REMARK  159  A    between atoms: _393  and  _395
REMARK  160  A    between atoms: _395  and  _396
REMARK  161  A    between atoms: _395  and  _398
REMARK  162  A    between atoms: _398  and  _399
REMARK  163  A    between atoms: _399  and  _640
REMARK  164  A    between atoms: _400  and  _402
REMARK  165  A    between atoms: _402  and  _403
REMARK  166  A    between atoms: _402  and  _405
REMARK  167  A    between atoms: _405  and  _406
REMARK  168  A    between atoms: _411  and  _412
REMARK  169  A    between atoms: _414  and  _416
REMARK  170  A    between atoms: _416  and  _417
REMARK  171  A    between atoms: _416  and  _419
REMARK  172  A    between atoms: _419  and  _420
REMARK  173  A    between atoms: _420  and  _421
REMARK  174  A    between atoms: _426  and  _428
REMARK  175  A    between atoms: _428  and  _429
REMARK  176  A    between atoms: _428  and  _431
REMARK  177  A    between atoms: _431  and  _432
REMARK  178  A    between atoms: _437  and  _438
REMARK  179  A    between atoms: _440  and  _442
REMARK  180  A    between atoms: _442  and  _443
REMARK  181  A    between atoms: _442  and  _445
REMARK  182  A    between atoms: _445  and  _446
REMARK  183  A    between atoms: _451  and  _452
REMARK  184  A    between atoms: _454  and  _456
REMARK  185  A    between atoms: _456  and  _457
REMARK  186  A    between atoms: _456  and  _459
REMARK  187  A    between atoms: _459  and  _460
REMARK  188  A    between atoms: _463  and  _465
REMARK  189  A    between atoms: _465  and  _466
REMARK  190  A    between atoms: _469  and  _471
REMARK  191  A    between atoms: _471  and  _472
REMARK  192  A    between atoms: _475  and  _477
REMARK  193  A    between atoms: _477  and  _478
REMARK  194  A    between atoms: _477  and  _480
REMARK  195  A    between atoms: _480  and  _481
REMARK  196  A    between atoms: _484  and  _486
REMARK  197  A    between atoms: _486  and  _487
REMARK  198  A    between atoms: _486  and  _489
REMARK  199  A    between atoms: _489  and  _490
REMARK  200  A    between atoms: _493  and  _495
REMARK  201  A    between atoms: _495  and  _496
REMARK  202  A    between atoms: _495  and  _498
REMARK  203  A    between atoms: _498  and  _499
REMARK  204  A    between atoms: _502  and  _504
REMARK  205  A    between atoms: _504  and  _505
REMARK  206  A    between atoms: _504  and  _507
REMARK  207  A    between atoms: _507  and  _508
REMARK  208  A    between atoms: _508  and  _509
REMARK  209  A    between atoms: _509  and  _510
REMARK  210  A    between atoms: _510  and  _511
REMARK  211  A    between atoms: _515  and  _517
REMARK  212  A    between atoms: _517  and  _518
REMARK  213  A    between atoms: _517  and  _520
REMARK  214  A    between atoms: _520  and  _521
REMARK  215  A    between atoms: _526  and  _528
REMARK  216  A    between atoms: _528  and  _529
REMARK  217  A    between atoms: _528  and  _531
REMARK  218  A    between atoms: _531  and  _532
REMARK  219  A    between atoms: _532  and  _533
REMARK  220  A    between atoms: _533  and  _534
REMARK  221  A    between atoms: _534  and  _535
REMARK  222  A    between atoms: _539  and  _541
REMARK  223  A    between atoms: _541  and  _542
REMARK  224  A    between atoms: _541  and  _544
REMARK  225  A    between atoms: _544  and  _545
REMARK  226  A    between atoms: _555  and  _557
REMARK  227  A    between atoms: _557  and  _558
REMARK  228  A    between atoms: _561  and  _563
REMARK  229  A    between atoms: _563  and  _564
REMARK  230  A    between atoms: _566  and  _568
REMARK  231  A    between atoms: _568  and  _569
REMARK  232  A    between atoms: _568  and  _571
REMARK  233  A    between atoms: _571  and  _572
REMARK  234  A    between atoms: _572  and  _573
REMARK  235  A    between atoms: _576  and  _578
REMARK  236  A    between atoms: _578  and  _579
REMARK  237  A    between atoms: _578  and  _581
REMARK  238  A    between atoms: _581  and  _582
REMARK  239  A    between atoms: _582  and  _583
REMARK  240  A    between atoms: _583  and  _584
REMARK  241  A    between atoms: _593  and  _595
REMARK  242  A    between atoms: _595  and  _596
REMARK  243  A    between atoms: _595  and  _598
REMARK  244  A    between atoms: _598  and  _599
REMARK  245  A    between atoms: _602  and  _604
REMARK  246  A    between atoms: _604  and  _605
REMARK  247  A    between atoms: _604  and  _607
REMARK  248  A    between atoms: _607  and  _608
REMARK  249  A    between atoms: _613  and  _614
REMARK  250  A    between atoms: _616  and  _618
REMARK  251  A    between atoms: _618  and  _619
REMARK  252  A    between atoms: _618  and  _621
REMARK  253  A    between atoms: _621  and  _622
REMARK  254  A    between atoms: _625  and  _627
REMARK  255  A    between atoms: _627  and  _628
REMARK  256  A    between atoms: _627  and  _630
REMARK  257  A    between atoms: _630  and  _631
REMARK  258  A    between atoms: _634  and  _636
REMARK  259  A    between atoms: _636  and  _637
REMARK  260  A    between atoms: _636  and  _639
REMARK  261  A    between atoms: _639  and  _640
REMARK  262  A    between atoms: _641  and  _643
REMARK  263  A    between atoms: _643  and  _644
REMARK  264  A    between atoms: _643  and  _646
REMARK  265  A    between atoms: _649  and  _651
REMARK  266  A    between atoms: _651  and  _652
REMARK  267  A    between atoms: _651  and  _654
REMARK  268  A    between atoms: _654  and  _655
REMARK  269  A    between atoms: _655  and  _656
REMARK  270  A    between atoms: _659  and  _661
REMARK  271  A    between atoms: _661  and  _662
REMARK  272  A    between atoms: _661  and  _664
REMARK  273  A    between atoms: _664  and  _665
REMARK  274  A    between atoms: _675  and  _677
REMARK  275  A    between atoms: _677  and  _678
REMARK  276  A    between atoms: _677  and  _680
REMARK  277  A    between atoms: _680  and  _681
REMARK  278  A    between atoms: _684  and  _686
REMARK  279  A    between atoms: _686  and  _687
REMARK  280  A    between atoms: _686  and  _689
REMARK  281  A    between atoms: _689  and  _690
REMARK  282  A    between atoms: _695  and  _696
REMARK                            x       y       z     vdW  Elec       q    Type
REMARK                         _______ _______ _______ _____ _____    ______ ____
ROOT
ATOM      1  CA  PHE A   1      47.871  48.928   9.912  0.00  0.00    +0.149 C 
ENDROOT
BRANCH   1   2
ATOM      2  C   PHE A   1      46.731  49.942   9.987  0.00  0.00    +0.239 C 
ATOM      3  O   PHE A   1      46.574  50.610  11.005  0.00  0.00    -0.274 OA
ATOM      4  N   VAL A   2      45.937  50.056   8.923  0.00  0.00    -0.298 N 
ATOM      5  H   VAL A   2      46.140  49.483   8.079  0.00  0.00    +0.150 HD
BRANCH   4   6
ATOM      6  CA  VAL A   2      44.786  50.964   8.906  0.00  0.00    +0.137 C 
BRANCH   6   7
ATOM      7  CB  VAL A   2      45.140  52.405   8.411  0.00  0.00    +0.026 C 
ATOM      8  CG2 VAL A   2      46.032  53.110   9.418  0.00  0.00    +0.002 C 
ATOM      9  CG1 VAL A   2      45.801  52.351   7.040  0.00  0.00    +0.002 C 
ENDBRANCH   6   7
BRANCH   6  10
ATOM     10  C   VAL A   2      43.708  50.410   7.988  0.00  0.00    +0.227 C 
ATOM     11  O   VAL A   2      43.996  49.634   7.078  0.00  0.00    -0.286 OA
ENDBRANCH   6  10
ENDBRANCH   4   6
ENDBRANCH   1   2
BRANCH   1  12
ATOM     12  N   PHE A   1      47.779  47.926   8.854  0.00  0.00    -0.238 NA
ATOM     13  H   PHE A   1      47.589  48.209   7.872  0.00  0.00    +0.142 HD
ENDBRANCH   1  12
BRANCH   1  14
ATOM     14  CB  PHE A   1      49.242  49.644   9.873  0.00  0.00    +0.053 C 
BRANCH  14  15
ATOM     15  CG  PHE A   1      49.356  50.736   8.840  0.00  0.00    -0.020 A 
ATOM     16  CD2 PHE A   1      49.505  52.063   9.236  0.00  0.00    -0.004 A 
ATOM     17  CE2 PHE A   1      49.625  53.087   8.290  0.00  0.00    -0.000 A 
ATOM     18  CZ  PHE A   1      49.596  52.786   6.938  0.00  0.00    -0.000 A 
ATOM     19  CE1 PHE A   1      49.449  51.458   6.529  0.00  0.00    -0.000 A 
ATOM     20  CD1 PHE A   1      49.330  50.443   7.481  0.00  0.00    -0.004 A 
ENDBRANCH  14  15
ENDBRANCH   1  14
TORSDOF 7
REMARK  Name = ../refined-set-2016/1g7q/1g7q_pocket.pdb
REMARK  282 active torsions:
REMARK  status: ('A' for Active; 'I' for Inactive)
REMARK    1  A    between atoms: _1  and  _3
REMARK    2  A    between atoms: _3  and  _4
REMARK    3  A    between atoms: _3  and  _6
REMARK    4  A    between atoms: _6  and  _7
REMARK    5  A    between atoms: _10  and  _12
REMARK    6  A    between atoms: _12  and  _13
REMARK    7  A    between atoms: _12  and  _15
REMARK    8  A    between atoms: _15  and  _16
REMARK    9  A    between atoms: _16  and  _17
REMARK   10  A    between atoms: _17  and  _18
REMARK   11  A    between atoms: _27  and  _29
REMARK   12  A    between atoms: _29  and  _30
REMARK   13  A    between atoms: _29  and  _32
REMARK   14  A    between atoms: _32  and  _33
REMARK   15  A    between atoms: _38  and  _39
REMARK   16  A    between atoms: _41  and  _43
REMARK   17  A    between atoms: _43  and  _44
REMARK   18  A    between atoms: _43  and  _46
REMARK   19  A    between atoms: _46  and  _47
REMARK   20  A    between atoms: _53  and  _55
REMARK   21  A    between atoms: _55  and  _56
REMARK   22  A    between atoms: _55  and  _58
REMARK   23  A    between atoms: _61  and  _63
REMARK   24  A    between atoms: _63  and  _64
REMARK   25  A    between atoms: _63  and  _66
REMARK   26  A    between atoms: _66  and  _67
REMARK   27  A    between atoms: _72  and  _73
REMARK   28  A    between atoms: _75  and  _77
REMARK   29  A    between atoms: _77  and  _78
REMARK   30  A    between atoms: _77  and  _80
REMARK   31  A    between atoms: _80  and  _81
REMARK   32  A    between atoms: _81  and  _82
REMARK   33  A    between atoms: _85  and  _87
REMARK   34  A    between atoms: _87  and  _88
REMARK   35  A    between atoms: _87  and  _90
REMARK   36  A    between atoms: _93  and  _95
REMARK   37  A    between atoms: _95  and  _96
REMARK   38  A    between atoms: _98  and  _100
REMARK   39  A    between atoms: _100  and  _101
REMARK   40  A    between atoms: _100  and  _103
REMARK   41  A    between atoms: _106  and  _108
REMARK   42  A    between atoms: _108  and  _109
REMARK   43  A    between atoms: _108  and  _111
REMARK   44  A    between atoms: _111  and  _112
REMARK   45  A    between atoms: _118  and  _120
REMARK   46  A    between atoms: _120  and  _121
REMARK   47  A    between atoms: _120  and  _123
REMARK   48  A    between atoms: _126  and  _128
REMARK   49  A    between atoms: _128  and  _129
REMARK   50  A    between atoms: _128  and  _131
REMARK   51  A    between atoms: _131  and  _132
REMARK   52  A    between atoms: _137  and  _138
REMARK   53  A    between atoms: _140  and  _142
REMARK   54  A    between atoms: _142  and  _143
REMARK   55  A    between atoms: _142  and  _145
REMARK   56  A    between atoms: _145  and  _146
REMARK   57  A    between atoms: _146  and  _147
REMARK   58  A    between atoms: _149  and  _151
REMARK   59  A    between atoms: _151  and  _152
REMARK   60  A    between atoms: _151  and  _154
REMARK   61  A    between atoms: _154  and  _155
REMARK   62  A    between atoms: _160  and  _161
REMARK   63  A    between atoms: _163  and  _165
REMARK   64  A    between atoms: _165  and  _166
REMARK   65  A    between atoms: _165  and  _168
REMARK   66  A    between atoms: _168  and  _169
REMARK   67  A    between atoms: _169  and  _170
REMARK   68  A    between atoms: _170  and  _171
REMARK   69  A    between atoms: _180  and  _182
REMARK   70  A    between atoms: _182  and  _183
REMARK   71  A    between atoms: _182  and  _185
REMARK   72  A    between atoms: _185  and  _186
REMARK   73  A    between atoms: _186  and  _187
REMARK   74  A    between atoms: _190  and  _192
REMARK   75  A    between atoms: _192  and  _193
REMARK   76  A    between atoms: _192  and  _195
REMARK   77  A    between atoms: _195  and  _196
REMARK   78  A    between atoms: _196  and  _197
REMARK   79  A    between atoms: _202  and  _204
REMARK   80  A    between atoms: _204  and  _205
REMARK   81  A    between atoms: _204  and  _207
REMARK   82  A    between atoms: _207  and  _208
REMARK   83  A    between atoms: _208  and  _209
REMARK   84  A    between atoms: _209  and  _210
REMARK   85  A    between atoms: _210  and  _211
REMARK   86  A    between atoms: _215  and  _217
REMARK   87  A    between atoms: _217  and  _218
REMARK   88  A    between atoms: _221  and  _223
REMARK   89  A    between atoms: _223  and  _224
REMARK   90  A    between atoms: _226  and  _228
REMARK   91  A    between atoms: _228  and  _229
REMARK   92  A    between atoms: _228  and  _231
REMARK   93  A    between atoms: _231  and  _232
REMARK   94  A    between atoms: _237  and  _239
REMARK   95  A    between atoms: _239  and  _240
REMARK   96  A    between atoms: _239  and  _242
REMARK   97  A    between atoms: _242  and  _243
REMARK   98  A    between atoms: _243  and  _244
REMARK   99  A    between atoms: _247  and  _249
REMARK  100  A    between atoms: _249  and  _250
REMARK  101  A    between atoms: _249  and  _252
REMARK  102  A    between atoms: _252  and  _253
REMARK  103  A    between atoms: _253  and  _254
REMARK  104  A    between atoms: _259  and  _261
REMARK  105  A    between atoms: _261  and  _262
REMARK  106  A    between atoms: _261  and  _264
REMARK  107  A    between atoms: _264  and  _265
REMARK  108  A    between atoms: _267  and  _269
REMARK  109  A    between atoms: _269  and  _270
REMARK  110  A    between atoms: _269  and  _272
REMARK  111  A    between atoms: _272  and  _273
REMARK  112  A    between atoms: _279  and  _281
REMARK  113  A    between atoms: _281  and  _282
REMARK  114  A    between atoms: _281  and  _284
REMARK  115  A    between atoms: _284  and  _285
REMARK  116  A    between atoms: _285  and  _286
REMARK  117  A    between atoms: _286  and  _287
REMARK  118  A    between atoms: _296  and  _298
REMARK  119  A    between atoms: _298  and  _299
REMARK  120  A    between atoms: _298  and  _301
REMARK  121  A    between atoms: _304  and  _306
REMARK  122  A    between atoms: _306  and  _307
REMARK  123  A    between atoms: _306  and  _309
REMARK  124  A    between atoms: _309  and  _310
REMARK  125  A    between atoms: _313  and  _315
REMARK  126  A    between atoms: _315  and  _316
REMARK  127  A    between atoms: _315  and  _318
REMARK  128  A    between atoms: _318  and  _319
REMARK  129  A    between atoms: _322  and  _324
REMARK  130  A    between atoms: _324  and  _325
REMARK  131  A    between atoms: _324  and  _327
REMARK  132  A    between atoms: _327  and  _328
REMARK  133  A    between atoms: _331  and  _333
REMARK  134  A    between atoms: _333  and  _334
REMARK  135  A    between atoms: _333  and  _336
REMARK  136  A    between atoms: _336  and  _337
REMARK  137  A    between atoms: _340  and  _342
REMARK  138  A    between atoms: _342  and  _343
REMARK  139  A    between atoms: _342  and  _345
REMARK  140  A    between atoms: _345  and  _346
REMARK  141  A    between atoms: _351  and  _352
REMARK  142  A    between atoms: _354  and  _356
REMARK  143  A    between atoms: _356  and  _357
REMARK  144  A    between atoms: _356  and  _359
REMARK  145  A    between atoms: _359  and  _360
REMARK  146  A    between atoms: _363  and  _365
REMARK  147  A    between atoms: _365  and  _366
REMARK  148  A    between atoms: _365  and  _368
REMARK  149  A    between atoms: _371  and  _373
REMARK  150  A    between atoms: _373  and  _374
REMARK  151  A    between atoms: _373  and  _376
REMARK  152  A    between atoms: _376  and  _377
REMARK  153  A    between atoms: _380  and  _382
REMARK  154  A    between atoms: _382  and  _383
REMARK  155  A    between atoms: _382  and  _385
REMARK  156  A    between atoms: _385  and  _386
REMARK  157  A    between atoms: _388  and  _390
REMARK  158  A    between atoms: _390  and  _391
REMARK  159  A    between atoms: _393  and  _395
REMARK  160  A    between atoms: _395  and  _396
REMARK  161  A    between atoms: _395  and  _398
REMARK  162  A    between atoms: _398  and  _399
REMARK  163  A    between atoms: _399  and  _640
REMARK  164  A    between atoms: _400  and  _402
REMARK  165  A    between atoms: _402  and  _403
REMARK  166  A    between atoms: _402  and  _405
REMARK  167  A    between atoms: _405  and  _406
REMARK  168  A    between atoms: _411  and  _412
REMARK  169  A    between atoms: _414  and  _416
REMARK  170  A    between atoms: _416  and  _417
REMARK  171  A    between atoms: _416  and  _419
REMARK  172  A    between atoms: _419  and  _420
REMARK  173  A    between atoms: _420  and  _421
REMARK  174  A    between atoms: _426  and  _428
REMARK  175  A    between atoms: _428  and  _429
REMARK  176  A    between atoms: _428  and  _431
REMARK  177  A    between atoms: _431  and  _432
REMARK  178  A    between atoms: _437  and  _438
REMARK  179  A    between atoms: _440  and  _442
REMARK  180  A    between atoms: _442  and  _443
REMARK  181  A    between atoms: _442  and  _445
REMARK  182  A    between atoms: _445  and  _446
REMARK  183  A    between atoms: _451  and  _452
REMARK  184  A    between atoms: _454  and  _456
REMARK  185  A    between atoms: _456  and  _457
REMARK  186  A    between atoms: _456  and  _459
REMARK  187  A    between atoms: _459  and  _460
REMARK  188  A    between atoms: _463  and  _465
REMARK  189  A    between atoms: _465  and  _466
REMARK  190  A    between atoms: _469  and  _471
REMARK  191  A    between atoms: _471  and  _472
REMARK  192  A    between atoms: _475  and  _477
REMARK  193  A    between atoms: _477  and  _478
REMARK  194  A    between atoms: _477  and  _480
REMARK  195  A    between atoms: _480  and  _481
REMARK  196  A    between atoms: _484  and  _486
REMARK  197  A    between atoms: _486  and  _487
REMARK  198  A    between atoms: _486  and  _489
REMARK  199  A    between atoms: _489  and  _490
REMARK  200  A    between atoms: _493  and  _495
REMARK  201  A    between atoms: _495  and  _496
REMARK  202  A    between atoms: _495  and  _498
REMARK  203  A    between atoms: _498  and  _499
REMARK  204  A    between atoms: _502  and  _504
REMARK  205  A    between atoms: _504  and  _505
REMARK  206  A    between atoms: _504  and  _507
REMARK  207  A    between atoms: _507  and  _508
REMARK  208  A    between atoms: _508  and  _509
REMARK  209  A    between atoms: _509  and  _510
REMARK  210  A    between atoms: _510  and  _511
REMARK  211  A    between atoms: _515  and  _517
REMARK  212  A    between atoms: _517  and  _518
REMARK  213  A    between atoms: _517  and  _520
REMARK  214  A    between atoms: _520  and  _521
REMARK  215  A    between atoms: _526  and  _528
REMARK  216  A    between atoms: _528  and  _529
REMARK  217  A    between atoms: _528  and  _531
REMARK  218  A    between atoms: _531  and  _532
REMARK  219  A    between atoms: _532  and  _533
REMARK  220  A    between atoms: _533  and  _534
REMARK  221  A    between atoms: _534  and  _535
REMARK  222  A    between atoms: _539  and  _541
REMARK  223  A    between atoms: _541  and  _542
REMARK  224  A    between atoms: _541  and  _544
REMARK  225  A    between atoms: _544  and  _545
REMARK  226  A    between atoms: _555  and  _557
REMARK  227  A    between atoms: _557  and  _558
REMARK  228  A    between atoms: _561  and  _563
REMARK  229  A    between atoms: _563  and  _564
REMARK  230  A    between atoms: _566  and  _568
REMARK  231  A    between atoms: _568  and  _569
REMARK  232  A    between atoms: _568  and  _571
REMARK  233  A    between atoms: _571  and  _572
REMARK  234  A    between atoms: _572  and  _573
REMARK  235  A    between atoms: _576  and  _578
REMARK  236  A    between atoms: _578  and  _579
REMARK  237  A    between atoms: _578  and  _581
REMARK  238  A    between atoms: _581  and  _582
REMARK  239  A    between atoms: _582  and  _583
REMARK  240  A    between atoms: _583  and  _584
REMARK  241  A    between atoms: _593  and  _595
REMARK  242  A    between atoms: _595  and  _596
REMARK  243  A    between atoms: _595  and  _598
REMARK  244  A    between atoms: _598  and  _599
REMARK  245  A    between atoms: _602  and  _604
REMARK  246  A    between atoms: _604  and  _605
REMARK  247  A    between atoms: _604  and  _607
REMARK  248  A    between atoms: _607  and  _608
REMARK  249  A    between atoms: _613  and  _614
REMARK  250  A    between atoms: _616  and  _618
REMARK  251  A    between atoms: _618  and  _619
REMARK  252  A    between atoms: _618  and  _621
REMARK  253  A    between atoms: _621  and  _622
REMARK  254  A    between atoms: _625  and  _627
REMARK  255  A    between atoms: _627  and  _628
REMARK  256  A    between atoms: _627  and  _630
REMARK  257  A    between atoms: _630  and  _631
REMARK  258  A    between atoms: _634  and  _636
REMARK  259  A    between atoms: _636  and  _637
REMARK  260  A    between atoms: _636  and  _639
REMARK  261  A    between atoms: _639  and  _640
REMARK  262  A    between atoms: _641  and  _643
REMARK  263  A    between atoms: _643  and  _644
REMARK  264  A    between atoms: _643  and  _646
REMARK  265  A    between atoms: _649  and  _651
REMARK  266  A    between atoms: _651  and  _652
REMARK  267  A    between atoms: _651  and  _654
REMARK  268  A    between atoms: _654  and  _655
REMARK  269  A    between atoms: _655  and  _656
REMARK  270  A    between atoms: _659  and  _661
REMARK  271  A    between atoms: _661  and  _662
REMARK  272  A    between atoms: _661  and  _664
REMARK  273  A    between atoms: _664  and  _665
REMARK  274  A    between atoms: _675  and  _677
REMARK  275  A    between atoms: _677  and  _678
REMARK  276  A    between atoms: _677  and  _680
REMARK  277  A    between atoms: _680  and  _681
REMARK  278  A    between atoms: _684  and  _686
REMARK  279  A    between atoms: _686  and  _687
REMARK  280  A    between atoms: _686  and  _689
REMARK  281  A    between atoms: _689  and  _690
REMARK  282  A    between atoms: _695  and  _696
REMARK                            x       y       z     vdW  Elec       q    Type
REMARK                         _______ _______ _______ _____ _____    ______ ____
ROOT
ATOM      1  CG  TYR A   1      41.320  55.920   7.690  0.00  0.00    -0.020 A 
ATOM      2  CD2 TYR A   1      42.602  55.376   7.758  0.00  0.00    -0.001 A 
ATOM      3  CE2 TYR A   1      43.260  54.946   6.604  0.00  0.00    +0.036 A 
ATOM      4  CZ  TYR A   1      42.633  55.063   5.374  0.00  0.00    +0.134 A 
ATOM      5  CE1 TYR A   1      41.366  55.604   5.285  0.00  0.00    +0.036 A 
ATOM      6  CD1 TYR A   1      40.717  56.026   6.441  0.00  0.00    -0.001 A 
ENDROOT
BRANCH   4   7
ATOM      7  OH  TYR A   1      43.260  54.620   4.229  0.00  0.00    -0.506 OA
ATOM      8  HH  TYR A   1      42.672  54.781   3.449  0.00  0.00    +0.292 HD
ENDBRANCH   4   7
BRANCH   1   9
ATOM      9  CB  TYR A   1      40.589  56.349   8.939  0.00  0.00    +0.051 C 
BRANCH   9  10
ATOM     10  CA  TYR A   1      39.515  55.350   9.378  0.00  0.00    +0.137 C 
BRANCH  10  11
ATOM     11  N   TYR A   1      38.221  55.994   9.542  0.00  0.00    -0.239 NA
ATOM     12  H   TYR A   1      38.146  57.030   9.494  0.00  0.00    +0.142 HD
ENDBRANCH  10  11
BRANCH  10  13
ATOM     13  C   TYR A   1      39.855  54.807  10.760  0.00  0.00    +0.224 C 
ATOM     14  O   TYR A   1      39.666  55.498  11.763  0.00  0.00    -0.287 OA
ENDBRANCH  10  13
ENDBRANCH   9  10
ENDBRANCH   1   9
TORSDOF 5
REMARK  Name = ../refined-set-2016/1g7q/1g7q_pocket.pdb
REMARK  282 active torsions:
REMARK  status: ('A' for Active; 'I' for Inactive)
REMARK    1  A    between atoms: _1  and  _3
REMARK    2  A    between atoms: _3  and  _4
REMARK    3  A    between atoms: _3  and  _6
REMARK    4  A    between atoms: _6  and  _7
REMARK    5  A    between atoms: _10  and  _12
REMARK    6  A    between atoms: _12  and  _13
REMARK    7  A    between atoms: _12  and  _15
REMARK    8  A    between atoms: _15  and  _16
REMARK    9  A    between atoms: _16  and  _17
REMARK   10  A    between atoms: _17  and  _18
REMARK   11  A    between atoms: _27  and  _29
REMARK   12  A    between atoms: _29  and  _30
REMARK   13  A    between atoms: _29  and  _32
REMARK   14  A    between atoms: _32  and  _33
REMARK   15  A    between atoms: _38  and  _39
REMARK   16  A    between atoms: _41  and  _43
REMARK   17  A    between atoms: _43  and  _44
REMARK   18  A    between atoms: _43  and  _46
REMARK   19  A    between atoms: _46  and  _47
REMARK   20  A    between atoms: _53  and  _55
REMARK   21  A    between atoms: _55  and  _56
REMARK   22  A    between atoms: _55  and  _58
REMARK   23  A    between atoms: _61  and  _63
REMARK   24  A    between atoms: _63  and  _64
REMARK   25  A    between atoms: _63  and  _66
REMARK   26  A    between atoms: _66  and  _67
REMARK   27  A    between atoms: _72  and  _73
REMARK   28  A    between atoms: _75  and  _77
REMARK   29  A    between atoms: _77  and  _78
REMARK   30  A    between atoms: _77  and  _80
REMARK   31  A    between atoms: _80  and  _81
REMARK   32  A    between atoms: _81  and  _82
REMARK   33  A    between atoms: _85  and  _87
REMARK   34  A    between atoms: _87  and  _88
REMARK   35  A    between atoms: _87  and  _90
REMARK   36  A    between atoms: _93  and  _95
REMARK   37  A    between atoms: _95  and  _96
REMARK   38  A    between atoms: _98  and  _100
REMARK   39  A    between atoms: _100  and  _101
REMARK   40  A    between atoms: _100  and  _103
REMARK   41  A    between atoms: _106  and  _108
REMARK   42  A    between atoms: _108  and  _109
REMARK   43  A    between atoms: _108  and  _111
REMARK   44  A    between atoms: _111  and  _112
REMARK   45  A    between atoms: _118  and  _120
REMARK   46  A    between atoms: _120  and  _121
REMARK   47  A    between atoms: _120  and  _123
REMARK   48  A    between atoms: _126  and  _128
REMARK   49  A    between atoms: _128  and  _129
REMARK   50  A    between atoms: _128  and  _131
REMARK   51  A    between atoms: _131  and  _132
REMARK   52  A    between atoms: _137  and  _138
REMARK   53  A    between atoms: _140  and  _142
REMARK   54  A    between atoms: _142  and  _143
REMARK   55  A    between atoms: _142  and  _145
REMARK   56  A    between atoms: _145  and  _146
REMARK   57  A    between atoms: _146  and  _147
REMARK   58  A    between atoms: _149  and  _151
REMARK   59  A    between atoms: _151  and  _152
REMARK   60  A    between atoms: _151  and  _154
REMARK   61  A    between atoms: _154  and  _155
REMARK   62  A    between atoms: _160  and  _161
REMARK   63  A    between atoms: _163  and  _165
REMARK   64  A    between atoms: _165  and  _166
REMARK   65  A    between atoms: _165  and  _168
REMARK   66  A    between atoms: _168  and  _169
REMARK   67  A    between atoms: _169  and  _170
REMARK   68  A    between atoms: _170  and  _171
REMARK   69  A    between atoms: _180  and  _182
REMARK   70  A    between atoms: _182  and  _183
REMARK   71  A    between atoms: _182  and  _185
REMARK   72  A    between atoms: _185  and  _186
REMARK   73  A    between atoms: _186  and  _187
REMARK   74  A    between atoms: _190  and  _192
REMARK   75  A    between atoms: _192  and  _193
REMARK   76  A    between atoms: _192  and  _195
REMARK   77  A    between atoms: _195  and  _196
REMARK   78  A    between atoms: _196  and  _197
REMARK   79  A    between atoms: _202  and  _204
REMARK   80  A    between atoms: _204  and  _205
REMARK   81  A    between atoms: _204  and  _207
REMARK   82  A    between atoms: _207  and  _208
REMARK   83  A    between atoms: _208  and  _209
REMARK   84  A    between atoms: _209  and  _210
REMARK   85  A    between atoms: _210  and  _211
REMARK   86  A    between atoms: _215  and  _217
REMARK   87  A    between atoms: _217  and  _218
REMARK   88  A    between atoms: _221  and  _223
REMARK   89  A    between atoms: _223  and  _224
REMARK   90  A    between atoms: _226  and  _228
REMARK   91  A    between atoms: _228  and  _229
REMARK   92  A    between atoms: _228  and  _231
REMARK   93  A    between atoms: _231  and  _232
REMARK   94  A    between atoms: _237  and  _239
REMARK   95  A    between atoms: _239  and  _240
REMARK   96  A    between atoms: _239  and  _242
REMARK   97  A    between atoms: _242  and  _243
REMARK   98  A    between atoms: _243  and  _244
REMARK   99  A    between atoms: _247  and  _249
REMARK  100  A    between atoms: _249  and  _250
REMARK  101  A    between atoms: _249  and  _252
REMARK  102  A    between atoms: _252  and  _253
REMARK  103  A    between atoms: _253  and  _254
REMARK  104  A    between atoms: _259  and  _261
REMARK  105  A    between atoms: _261  and  _262
REMARK  106  A    between atoms: _261  and  _264
REMARK  107  A    between atoms: _264  and  _265
REMARK  108  A    between atoms: _267  and  _269
REMARK  109  A    between atoms: _269  and  _270
REMARK  110  A    between atoms: _269  and  _272
REMARK  111  A    between atoms: _272  and  _273
REMARK  112  A    between atoms: _279  and  _281
REMARK  113  A    between atoms: _281  and  _282
REMARK  114  A    between atoms: _281  and  _284
REMARK  115  A    between atoms: _284  and  _285
REMARK  116  A    between atoms: _285  and  _286
REMARK  117  A    between atoms: _286  and  _287
REMARK  118  A    between atoms: _296  and  _298
REMARK  119  A    between atoms: _298  and  _299
REMARK  120  A    between atoms: _298  and  _301
REMARK  121  A    between atoms: _304  and  _306
REMARK  122  A    between atoms: _306  and  _307
REMARK  123  A    between atoms: _306  and  _309
REMARK  124  A    between atoms: _309  and  _310
REMARK  125  A    between atoms: _313  and  _315
REMARK  126  A    between atoms: _315  and  _316
REMARK  127  A    between atoms: _315  and  _318
REMARK  128  A    between atoms: _318  and  _319
REMARK  129  A    between atoms: _322  and  _324
REMARK  130  A    between atoms: _324  and  _325
REMARK  131  A    between atoms: _324  and  _327
REMARK  132  A    between atoms: _327  and  _328
REMARK  133  A    between atoms: _331  and  _333
REMARK  134  A    between atoms: _333  and  _334
REMARK  135  A    between atoms: _333  and  _336
REMARK  136  A    between atoms: _336  and  _337
REMARK  137  A    between atoms: _340  and  _342
REMARK  138  A    between atoms: _342  and  _343
REMARK  139  A    between atoms: _342  and  _345
REMARK  140  A    between atoms: _345  and  _346
REMARK  141  A    between atoms: _351  and  _352
REMARK  142  A    between atoms: _354  and  _356
REMARK  143  A    between atoms: _356  and  _357
REMARK  144  A    between atoms: _356  and  _359
REMARK  145  A    between atoms: _359  and  _360
REMARK  146  A    between atoms: _363  and  _365
REMARK  147  A    between atoms: _365  and  _366
REMARK  148  A    between atoms: _365  and  _368
REMARK  149  A    between atoms: _371  and  _373
REMARK  150  A    between atoms: _373  and  _374
REMARK  151  A    between atoms: _373  and  _376
REMARK  152  A    between atoms: _376  and  _377
REMARK  153  A    between atoms: _380  and  _382
REMARK  154  A    between atoms: _382  and  _383
REMARK  155  A    between atoms: _382  and  _385
REMARK  156  A    between atoms: _385  and  _386
REMARK  157  A    between atoms: _388  and  _390
REMARK  158  A    between atoms: _390  and  _391
REMARK  159  A    between atoms: _393  and  _395
REMARK  160  A    between atoms: _395  and  _396
REMARK  161  A    between atoms: _395  and  _398
REMARK  162  A    between atoms: _398  and  _399
REMARK  163  A    between atoms: _399  and  _640
REMARK  164  A    between atoms: _400  and  _402
REMARK  165  A    between atoms: _402  and  _403
REMARK  166  A    between atoms: _402  and  _405
REMARK  167  A    between atoms: _405  and  _406
REMARK  168  A    between atoms: _411  and  _412
REMARK  169  A    between atoms: _414  and  _416
REMARK  170  A    between atoms: _416  and  _417
REMARK  171  A    between atoms: _416  and  _419
REMARK  172  A    between atoms: _419  and  _420
REMARK  173  A    between atoms: _420  and  _421
REMARK  174  A    between atoms: _426  and  _428
REMARK  175  A    between atoms: _428  and  _429
REMARK  176  A    between atoms: _428  and  _431
REMARK  177  A    between atoms: _431  and  _432
REMARK  178  A    between atoms: _437  and  _438
REMARK  179  A    between atoms: _440  and  _442
REMARK  180  A    between atoms: _442  and  _443
REMARK  181  A    between atoms: _442  and  _445
REMARK  182  A    between atoms: _445  and  _446
REMARK  183  A    between atoms: _451  and  _452
REMARK  184  A    between atoms: _454  and  _456
REMARK  185  A    between atoms: _456  and  _457
REMARK  186  A    between atoms: _456  and  _459
REMARK  187  A    between atoms: _459  and  _460
REMARK  188  A    between atoms: _463  and  _465
REMARK  189  A    between atoms: _465  and  _466
REMARK  190  A    between atoms: _469  and  _471
REMARK  191  A    between atoms: _471  and  _472
REMARK  192  A    between atoms: _475  and  _477
REMARK  193  A    between atoms: _477  and  _478
REMARK  194  A    between atoms: _477  and  _480
REMARK  195  A    between atoms: _480  and  _481
REMARK  196  A    between atoms: _484  and  _486
REMARK  197  A    between atoms: _486  and  _487
REMARK  198  A    between atoms: _486  and  _489
REMARK  199  A    between atoms: _489  and  _490
REMARK  200  A    between atoms: _493  and  _495
REMARK  201  A    between atoms: _495  and  _496
REMARK  202  A    between atoms: _495  and  _498
REMARK  203  A    between atoms: _498  and  _499
REMARK  204  A    between atoms: _502  and  _504
REMARK  205  A    between atoms: _504  and  _505
REMARK  206  A    between atoms: _504  and  _507
REMARK  207  A    between atoms: _507  and  _508
REMARK  208  A    between atoms: _508  and  _509
REMARK  209  A    between atoms: _509  and  _510
REMARK  210  A    between atoms: _510  and  _511
REMARK  211  A    between atoms: _515  and  _517
REMARK  212  A    between atoms: _517  and  _518
REMARK  213  A    between atoms: _517  and  _520
REMARK  214  A    between atoms: _520  and  _521
REMARK  215  A    between atoms: _526  and  _528
REMARK  216  A    between atoms: _528  and  _529
REMARK  217  A    between atoms: _528  and  _531
REMARK  218  A    between atoms: _531  and  _532
REMARK  219  A    between atoms: _532  and  _533
REMARK  220  A    between atoms: _533  and  _534
REMARK  221  A    between atoms: _534  and  _535
REMARK  222  A    between atoms: _539  and  _541
REMARK  223  A    between atoms: _541  and  _542
REMARK  224  A    between atoms: _541  and  _544
REMARK  225  A    between atoms: _544  and  _545
REMARK  226  A    between atoms: _555  and  _557
REMARK  227  A    between atoms: _557  and  _558
REMARK  228  A    between atoms: _561  and  _563
REMARK  229  A    between atoms: _563  and  _564
REMARK  230  A    between atoms: _566  and  _568
REMARK  231  A    between atoms: _568  and  _569
REMARK  232  A    between atoms: _568  and  _571
REMARK  233  A    between atoms: _571  and  _572
REMARK  234  A    between atoms: _572  and  _573
REMARK  235  A    between atoms: _576  and  _578
REMARK  236  A    between atoms: _578  and  _579
REMARK  237  A    between atoms: _578  and  _581
REMARK  238  A    between atoms: _581  and  _582
REMARK  239  A    between atoms: _582  and  _583
REMARK  240  A    between atoms: _583  and  _584
REMARK  241  A    between atoms: _593  and  _595
REMARK  242  A    between atoms: _595  and  _596
REMARK  243  A    between atoms: _595  and  _598
REMARK  244  A    between atoms: _598  and  _599
REMARK  245  A    between atoms: _602  and  _604
REMARK  246  A    between atoms: _604  and  _605
REMARK  247  A    between atoms: _604  and  _607
REMARK  248  A    between atoms: _607  and  _608
REMARK  249  A    between atoms: _613  and  _614
REMARK  250  A    between atoms: _616  and  _618
REMARK  251  A    between atoms: _618  and  _619
REMARK  252  A    between atoms: _618  and  _621
REMARK  253  A    between atoms: _621  and  _622
REMARK  254  A    between atoms: _625  and  _627
REMARK  255  A    between atoms: _627  and  _628
REMARK  256  A    between atoms: _627  and  _630
REMARK  257  A    between atoms: _630  and  _631
REMARK  258  A    between atoms: _634  and  _636
REMARK  259  A    between atoms: _636  and  _637
REMARK  260  A    between atoms: _636  and  _639
REMARK  261  A    between atoms: _639  and  _640
REMARK  262  A    between atoms: _641  and  _643
REMARK  263  A    between atoms: _643  and  _644
REMARK  264  A    between atoms: _643  and  _646
REMARK  265  A    between atoms: _649  and  _651
REMARK  266  A    between atoms: _651  and  _652
REMARK  267  A    between atoms: _651  and  _654
REMARK  268  A    between atoms: _654  and  _655
REMARK  269  A    between atoms: _655  and  _656
REMARK  270  A    between atoms: _659  and  _661
REMARK  271  A    between atoms: _661  and  _662
REMARK  272  A    between atoms: _661  and  _664
REMARK  273  A    between atoms: _664  and  _665
REMARK  274  A    between atoms: _675  and  _677
REMARK  275  A    between atoms: _677  and  _678
REMARK  276  A    between atoms: _677  and  _680
REMARK  277  A    between atoms: _680  and  _681
REMARK  278  A    between atoms: _684  and  _686
REMARK  279  A    between atoms: _686  and  _687
REMARK  280  A    between atoms: _686  and  _689
REMARK  281  A    between atoms: _689  and  _690
REMARK  282  A    between atoms: _695  and  _696
REMARK                            x       y       z     vdW  Elec       q    Type
REMARK                         _______ _______ _______ _____ _____    ______ ____
ROOT
ATOM      1  CA  MET A   1      49.126  53.547  15.296  0.00  0.00    +0.134 C 
ENDROOT
BRANCH   1   2
ATOM      2  N   MET A   1      49.818  52.408  15.884  0.00  0.00    -0.239 NA
ATOM      3  H   MET A   1      49.431  51.448  15.780  0.00  0.00    +0.142 HD
ENDBRANCH   1   2
BRANCH   1   4
ATOM      4  C   MET A   1      48.413  54.375  16.360  0.00  0.00    +0.224 C 
ATOM      5  O   MET A   1      47.791  55.391  16.061  0.00  0.00    -0.287 OA
ENDBRANCH   1   4
BRANCH   1   6
ATOM      6  CB  MET A   1      48.155  53.089  14.209  0.00  0.00    +0.037 C 
BRANCH   6   7
ATOM      7  CG  MET A   1      48.861  52.762  12.890  0.00  0.00    +0.059 C 
BRANCH   7   8
ATOM      8  SD  MET A   1      49.734  54.195  12.170  0.00  0.00    -0.139 S 
ATOM      9  CE  MET A   1      48.353  55.153  11.560  0.00  0.00    +0.069 C 
ENDBRANCH   7   8
ENDBRANCH   6   7
ENDBRANCH   1   6
TORSDOF 5
REMARK  Name = ../refined-set-2016/1g7q/1g7q_pocket.pdb
REMARK  282 active torsions:
REMARK  status: ('A' for Active; 'I' for Inactive)
REMARK    1  A    between atoms: _1  and  _3
REMARK    2  A    between atoms: _3  and  _4
REMARK    3  A    between atoms: _3  and  _6
REMARK    4  A    between atoms: _6  and  _7
REMARK    5  A    between atoms: _10  and  _12
REMARK    6  A    between atoms: _12  and  _13
REMARK    7  A    between atoms: _12  and  _15
REMARK    8  A    between atoms: _15  and  _16
REMARK    9  A    between atoms: _16  and  _17
REMARK   10  A    between atoms: _17  and  _18
REMARK   11  A    between atoms: _27  and  _29
REMARK   12  A    between atoms: _29  and  _30
REMARK   13  A    between atoms: _29  and  _32
REMARK   14  A    between atoms: _32  and  _33
REMARK   15  A    between atoms: _38  and  _39
REMARK   16  A    between atoms: _41  and  _43
REMARK   17  A    between atoms: _43  and  _44
REMARK   18  A    between atoms: _43  and  _46
REMARK   19  A    between atoms: _46  and  _47
REMARK   20  A    between atoms: _53  and  _55
REMARK   21  A    between atoms: _55  and  _56
REMARK   22  A    between atoms: _55  and  _58
REMARK   23  A    between atoms: _61  and  _63
REMARK   24  A    between atoms: _63  and  _64
REMARK   25  A    between atoms: _63  and  _66
REMARK   26  A    between atoms: _66  and  _67
REMARK   27  A    between atoms: _72  and  _73
REMARK   28  A    between atoms: _75  and  _77
REMARK   29  A    between atoms: _77  and  _78
REMARK   30  A    between atoms: _77  and  _80
REMARK   31  A    between atoms: _80  and  _81
REMARK   32  A    between atoms: _81  and  _82
REMARK   33  A    between atoms: _85  and  _87
REMARK   34  A    between atoms: _87  and  _88
REMARK   35  A    between atoms: _87  and  _90
REMARK   36  A    between atoms: _93  and  _95
REMARK   37  A    between atoms: _95  and  _96
REMARK   38  A    between atoms: _98  and  _100
REMARK   39  A    between atoms: _100  and  _101
REMARK   40  A    between atoms: _100  and  _103
REMARK   41  A    between atoms: _106  and  _108
REMARK   42  A    between atoms: _108  and  _109
REMARK   43  A    between atoms: _108  and  _111
REMARK   44  A    between atoms: _111  and  _112
REMARK   45  A    between atoms: _118  and  _120
REMARK   46  A    between atoms: _120  and  _121
REMARK   47  A    between atoms: _120  and  _123
REMARK   48  A    between atoms: _126  and  _128
REMARK   49  A    between atoms: _128  and  _129
REMARK   50  A    between atoms: _128  and  _131
REMARK   51  A    between atoms: _131  and  _132
REMARK   52  A    between atoms: _137  and  _138
REMARK   53  A    between atoms: _140  and  _142
REMARK   54  A    between atoms: _142  and  _143
REMARK   55  A    between atoms: _142  and  _145
REMARK   56  A    between atoms: _145  and  _146
REMARK   57  A    between atoms: _146  and  _147
REMARK   58  A    between atoms: _149  and  _151
REMARK   59  A    between atoms: _151  and  _152
REMARK   60  A    between atoms: _151  and  _154
REMARK   61  A    between atoms: _154  and  _155
REMARK   62  A    between atoms: _160  and  _161
REMARK   63  A    between atoms: _163  and  _165
REMARK   64  A    between atoms: _165  and  _166
REMARK   65  A    between atoms: _165  and  _168
REMARK   66  A    between atoms: _168  and  _169
REMARK   67  A    between atoms: _169  and  _170
REMARK   68  A    between atoms: _170  and  _171
REMARK   69  A    between atoms: _180  and  _182
REMARK   70  A    between atoms: _182  and  _183
REMARK   71  A    between atoms: _182  and  _185
REMARK   72  A    between atoms: _185  and  _186
REMARK   73  A    between atoms: _186  and  _187
REMARK   74  A    between atoms: _190  and  _192
REMARK   75  A    between atoms: _192  and  _193
REMARK   76  A    between atoms: _192  and  _195
REMARK   77  A    between atoms: _195  and  _196
REMARK   78  A    between atoms: _196  and  _197
REMARK   79  A    between atoms: _202  and  _204
REMARK   80  A    between atoms: _204  and  _205
REMARK   81  A    between atoms: _204  and  _207
REMARK   82  A    between atoms: _207  and  _208
REMARK   83  A    between atoms: _208  and  _209
REMARK   84  A    between atoms: _209  and  _210
REMARK   85  A    between atoms: _210  and  _211
REMARK   86  A    between atoms: _215  and  _217
REMARK   87  A    between atoms: _217  and  _218
REMARK   88  A    between atoms: _221  and  _223
REMARK   89  A    between atoms: _223  and  _224
REMARK   90  A    between atoms: _226  and  _228
REMARK   91  A    between atoms: _228  and  _229
REMARK   92  A    between atoms: _228  and  _231
REMARK   93  A    between atoms: _231  and  _232
REMARK   94  A    between atoms: _237  and  _239
REMARK   95  A    between atoms: _239  and  _240
REMARK   96  A    between atoms: _239  and  _242
REMARK   97  A    between atoms: _242  and  _243
REMARK   98  A    between atoms: _243  and  _244
REMARK   99  A    between atoms: _247  and  _249
REMARK  100  A    between atoms: _249  and  _250
REMARK  101  A    between atoms: _249  and  _252
REMARK  102  A    between atoms: _252  and  _253
REMARK  103  A    between atoms: _253  and  _254
REMARK  104  A    between atoms: _259  and  _261
REMARK  105  A    between atoms: _261  and  _262
REMARK  106  A    between atoms: _261  and  _264
REMARK  107  A    between atoms: _264  and  _265
REMARK  108  A    between atoms: _267  and  _269
REMARK  109  A    between atoms: _269  and  _270
REMARK  110  A    between atoms: _269  and  _272
REMARK  111  A    between atoms: _272  and  _273
REMARK  112  A    between atoms: _279  and  _281
REMARK  113  A    between atoms: _281  and  _282
REMARK  114  A    between atoms: _281  and  _284
REMARK  115  A    between atoms: _284  and  _285
REMARK  116  A    between atoms: _285  and  _286
REMARK  117  A    between atoms: _286  and  _287
REMARK  118  A    between atoms: _296  and  _298
REMARK  119  A    between atoms: _298  and  _299
REMARK  120  A    between atoms: _298  and  _301
REMARK  121  A    between atoms: _304  and  _306
REMARK  122  A    between atoms: _306  and  _307
REMARK  123  A    between atoms: _306  and  _309
REMARK  124  A    between atoms: _309  and  _310
REMARK  125  A    between atoms: _313  and  _315
REMARK  126  A    between atoms: _315  and  _316
REMARK  127  A    between atoms: _315  and  _318
REMARK  128  A    between atoms: _318  and  _319
REMARK  129  A    between atoms: _322  and  _324
REMARK  130  A    between atoms: _324  and  _325
REMARK  131  A    between atoms: _324  and  _327
REMARK  132  A    between atoms: _327  and  _328
REMARK  133  A    between atoms: _331  and  _333
REMARK  134  A    between atoms: _333  and  _334
REMARK  135  A    between atoms: _333  and  _336
REMARK  136  A    between atoms: _336  and  _337
REMARK  137  A    between atoms: _340  and  _342
REMARK  138  A    between atoms: _342  and  _343
REMARK  139  A    between atoms: _342  and  _345
REMARK  140  A    between atoms: _345  and  _346
REMARK  141  A    between atoms: _351  and  _352
REMARK  142  A    between atoms: _354  and  _356
REMARK  143  A    between atoms: _356  and  _357
REMARK  144  A    between atoms: _356  and  _359
REMARK  145  A    between atoms: _359  and  _360
REMARK  146  A    between atoms: _363  and  _365
REMARK  147  A    between atoms: _365  and  _366
REMARK  148  A    between atoms: _365  and  _368
REMARK  149  A    between atoms: _371  and  _373
REMARK  150  A    between atoms: _373  and  _374
REMARK  151  A    between atoms: _373  and  _376
REMARK  152  A    between atoms: _376  and  _377
REMARK  153  A    between atoms: _380  and  _382
REMARK  154  A    between atoms: _382  and  _383
REMARK  155  A    between atoms: _382  and  _385
REMARK  156  A    between atoms: _385  and  _386
REMARK  157  A    between atoms: _388  and  _390
REMARK  158  A    between atoms: _390  and  _391
REMARK  159  A    between atoms: _393  and  _395
REMARK  160  A    between atoms: _395  and  _396
REMARK  161  A    between atoms: _395  and  _398
REMARK  162  A    between atoms: _398  and  _399
REMARK  163  A    between atoms: _399  and  _640
REMARK  164  A    between atoms: _400  and  _402
REMARK  165  A    between atoms: _402  and  _403
REMARK  166  A    between atoms: _402  and  _405
REMARK  167  A    between atoms: _405  and  _406
REMARK  168  A    between atoms: _411  and  _412
REMARK  169  A    between atoms: _414  and  _416
REMARK  170  A    between atoms: _416  and  _417
REMARK  171  A    between atoms: _416  and  _419
REMARK  172  A    between atoms: _419  and  _420
REMARK  173  A    between atoms: _420  and  _421
REMARK  174  A    between atoms: _426  and  _428
REMARK  175  A    between atoms: _428  and  _429
REMARK  176  A    between atoms: _428  and  _431
REMARK  177  A    between atoms: _431  and  _432
REMARK  178  A    between atoms: _437  and  _438
REMARK  179  A    between atoms: _440  and  _442
REMARK  180  A    between atoms: _442  and  _443
REMARK  181  A    between atoms: _442  and  _445
REMARK  182  A    between atoms: _445  and  _446
REMARK  183  A    between atoms: _451  and  _452
REMARK  184  A    between atoms: _454  and  _456
REMARK  185  A    between atoms: _456  and  _457
REMARK  186  A    between atoms: _456  and  _459
REMARK  187  A    between atoms: _459  and  _460
REMARK  188  A    between atoms: _463  and  _465
REMARK  189  A    between atoms: _465  and  _466
REMARK  190  A    between atoms: _469  and  _471
REMARK  191  A    between atoms: _471  and  _472
REMARK  192  A    between atoms: _475  and  _477
REMARK  193  A    between atoms: _477  and  _478
REMARK  194  A    between atoms: _477  and  _480
REMARK  195  A    between atoms: _480  and  _481
REMARK  196  A    between atoms: _484  and  _486
REMARK  197  A    between atoms: _486  and  _487
REMARK  198  A    between atoms: _486  and  _489
REMARK  199  A    between atoms: _489  and  _490
REMARK  200  A    between atoms: _493  and  _495
REMARK  201  A    between atoms: _495  and  _496
REMARK  202  A    between atoms: _495  and  _498
REMARK  203  A    between atoms: _498  and  _499
REMARK  204  A    between atoms: _502  and  _504
REMARK  205  A    between atoms: _504  and  _505
REMARK  206  A    between atoms: _504  and  _507
REMARK  207  A    between atoms: _507  and  _508
REMARK  208  A    between atoms: _508  and  _509
REMARK  209  A    between atoms: _509  and  _510
REMARK  210  A    between atoms: _510  and  _511
REMARK  211  A    between atoms: _515  and  _517
REMARK  212  A    between atoms: _517  and  _518
REMARK  213  A    between atoms: _517  and  _520
REMARK  214  A    between atoms: _520  and  _521
REMARK  215  A    between atoms: _526  and  _528
REMARK  216  A    between atoms: _528  and  _529
REMARK  217  A    between atoms: _528  and  _531
REMARK  218  A    between atoms: _531  and  _532
REMARK  219  A    between atoms: _532  and  _533
REMARK  220  A    between atoms: _533  and  _534
REMARK  221  A    between atoms: _534  and  _535
REMARK  222  A    between atoms: _539  and  _541
REMARK  223  A    between atoms: _541  and  _542
REMARK  224  A    between atoms: _541  and  _544
REMARK  225  A    between atoms: _544  and  _545
REMARK  226  A    between atoms: _555  and  _557
REMARK  227  A    between atoms: _557  and  _558
REMARK  228  A    between atoms: _561  and  _563
REMARK  229  A    between atoms: _563  and  _564
REMARK  230  A    between atoms: _566  and  _568
REMARK  231  A    between atoms: _568  and  _569
REMARK  232  A    between atoms: _568  and  _571
REMARK  233  A    between atoms: _571  and  _572
REMARK  234  A    between atoms: _572  and  _573
REMARK  235  A    between atoms: _576  and  _578
REMARK  236  A    between atoms: _578  and  _579
REMARK  237  A    between atoms: _578  and  _581
REMARK  238  A    between atoms: _581  and  _582
REMARK  239  A    between atoms: _582  and  _583
REMARK  240  A    between atoms: _583  and  _584
REMARK  241  A    between atoms: _593  and  _595
REMARK  242  A    between atoms: _595  and  _596
REMARK  243  A    between atoms: _595  and  _598
REMARK  244  A    between atoms: _598  and  _599
REMARK  245  A    between atoms: _602  and  _604
REMARK  246  A    between atoms: _604  and  _605
REMARK  247  A    between atoms: _604  and  _607
REMARK  248  A    between atoms: _607  and  _608
REMARK  249  A    between atoms: _613  and  _614
REMARK  250  A    between atoms: _616  and  _618
REMARK  251  A    between atoms: _618  and  _619
REMARK  252  A    between atoms: _618  and  _621
REMARK  253  A    between atoms: _621  and  _622
REMARK  254  A    between atoms: _625  and  _627
REMARK  255  A    between atoms: _627  and  _628
REMARK  256  A    between atoms: _627  and  _630
REMARK  257  A    between atoms: _630  and  _631
REMARK  258  A    between atoms: _634  and  _636
REMARK  259  A    between atoms: _636  and  _637
REMARK  260  A    between atoms: _636  and  _639
REMARK  261  A    between atoms: _639  and  _640
REMARK  262  A    between atoms: _641  and  _643
REMARK  263  A    between atoms: _643  and  _644
REMARK  264  A    between atoms: _643  and  _646
REMARK  265  A    between atoms: _649  and  _651
REMARK  266  A    between atoms: _651  and  _652
REMARK  267  A    between atoms: _651  and  _654
REMARK  268  A    between atoms: _654  and  _655
REMARK  269  A    between atoms: _655  and  _656
REMARK  270  A    between atoms: _659  and  _661
REMARK  271  A    between atoms: _661  and  _662
REMARK  272  A    between atoms: _661  and  _664
REMARK  273  A    between atoms: _664  and  _665
REMARK  274  A    between atoms: _675  and  _677
REMARK  275  A    between atoms: _677  and  _678
REMARK  276  A    between atoms: _677  and  _680
REMARK  277  A    between atoms: _680  and  _681
REMARK  278  A    between atoms: _684  and  _686
REMARK  279  A    between atoms: _686  and  _687
REMARK  280  A    between atoms: _686  and  _689
REMARK  281  A    between atoms: _689  and  _690
REMARK  282  A    between atoms: _695  and  _696
REMARK                            x       y       z     vdW  Elec       q    Type
REMARK                         _______ _______ _______ _____ _____    ______ ____
ROOT
ATOM      1  CG  TYR A   1      46.695  60.038  11.457  0.00  0.00    -0.020 A 
ATOM      2  CD2 TYR A   1      45.990  58.837  11.421  0.00  0.00    -0.001 A 
ATOM      3  CE2 TYR A   1      46.326  57.832  10.525  0.00  0.00    +0.036 A 
ATOM      4  CZ  TYR A   1      47.381  58.019   9.652  0.00  0.00    +0.134 A 
ATOM      5  CE1 TYR A   1      48.108  59.204   9.665  0.00  0.00    +0.036 A 
ATOM      6  CD1 TYR A   1      47.756  60.209  10.569  0.00  0.00    -0.001 A 
ENDROOT
BRANCH   4   7
ATOM      7  OH  TYR A   1      47.696  57.025   8.757  0.00  0.00    -0.506 OA
ATOM      8  HH  TYR A   1      48.468  57.310   8.207  0.00  0.00    +0.292 HD
ENDBRANCH   4   7
BRANCH   1   9
ATOM      9  CB  TYR A   1      46.301  61.133  12.424  0.00  0.00    +0.051 C 
BRANCH   9  10
ATOM     10  CA  TYR A   1      45.242  62.093  11.878  0.00  0.00    +0.137 C 
BRANCH  10  11
ATOM     11  N   TYR A   1      44.884  63.078  12.892  0.00  0.00    -0.239 NA
ATOM     12  H   TYR A   1      45.323  63.021  13.833  0.00  0.00    +0.142 HD
ENDBRANCH  10  11
BRANCH  10  13
ATOM     13  C   TYR A   1      44.009  61.304  11.462  0.00  0.00    +0.224 C 
ATOM     14  O   TYR A   1      43.702  61.181  10.277  0.00  0.00    -0.287 OA
ENDBRANCH  10  13
ENDBRANCH   9  10
ENDBRANCH   1   9
TORSDOF 5
REMARK  Name = ../refined-set-2016/1g7q/1g7q_pocket.pdb
REMARK  282 active torsions:
REMARK  status: ('A' for Active; 'I' for Inactive)
REMARK    1  A    between atoms: _1  and  _3
REMARK    2  A    between atoms: _3  and  _4
REMARK    3  A    between atoms: _3  and  _6
REMARK    4  A    between atoms: _6  and  _7
REMARK    5  A    between atoms: _10  and  _12
REMARK    6  A    between atoms: _12  and  _13
REMARK    7  A    between atoms: _12  and  _15
REMARK    8  A    between atoms: _15  and  _16
REMARK    9  A    between atoms: _16  and  _17
REMARK   10  A    between atoms: _17  and  _18
REMARK   11  A    between atoms: _27  and  _29
REMARK   12  A    between atoms: _29  and  _30
REMARK   13  A    between atoms: _29  and  _32
REMARK   14  A    between atoms: _32  and  _33
REMARK   15  A    between atoms: _38  and  _39
REMARK   16  A    between atoms: _41  and  _43
REMARK   17  A    between atoms: _43  and  _44
REMARK   18  A    between atoms: _43  and  _46
REMARK   19  A    between atoms: _46  and  _47
REMARK   20  A    between atoms: _53  and  _55
REMARK   21  A    between atoms: _55  and  _56
REMARK   22  A    between atoms: _55  and  _58
REMARK   23  A    between atoms: _61  and  _63
REMARK   24  A    between atoms: _63  and  _64
REMARK   25  A    between atoms: _63  and  _66
REMARK   26  A    between atoms: _66  and  _67
REMARK   27  A    between atoms: _72  and  _73
REMARK   28  A    between atoms: _75  and  _77
REMARK   29  A    between atoms: _77  and  _78
REMARK   30  A    between atoms: _77  and  _80
REMARK   31  A    between atoms: _80  and  _81
REMARK   32  A    between atoms: _81  and  _82
REMARK   33  A    between atoms: _85  and  _87
REMARK   34  A    between atoms: _87  and  _88
REMARK   35  A    between atoms: _87  and  _90
REMARK   36  A    between atoms: _93  and  _95
REMARK   37  A    between atoms: _95  and  _96
REMARK   38  A    between atoms: _98  and  _100
REMARK   39  A    between atoms: _100  and  _101
REMARK   40  A    between atoms: _100  and  _103
REMARK   41  A    between atoms: _106  and  _108
REMARK   42  A    between atoms: _108  and  _109
REMARK   43  A    between atoms: _108  and  _111
REMARK   44  A    between atoms: _111  and  _112
REMARK   45  A    between atoms: _118  and  _120
REMARK   46  A    between atoms: _120  and  _121
REMARK   47  A    between atoms: _120  and  _123
REMARK   48  A    between atoms: _126  and  _128
REMARK   49  A    between atoms: _128  and  _129
REMARK   50  A    between atoms: _128  and  _131
REMARK   51  A    between atoms: _131  and  _132
REMARK   52  A    between atoms: _137  and  _138
REMARK   53  A    between atoms: _140  and  _142
REMARK   54  A    between atoms: _142  and  _143
REMARK   55  A    between atoms: _142  and  _145
REMARK   56  A    between atoms: _145  and  _146
REMARK   57  A    between atoms: _146  and  _147
REMARK   58  A    between atoms: _149  and  _151
REMARK   59  A    between atoms: _151  and  _152
REMARK   60  A    between atoms: _151  and  _154
REMARK   61  A    between atoms: _154  and  _155
REMARK   62  A    between atoms: _160  and  _161
REMARK   63  A    between atoms: _163  and  _165
REMARK   64  A    between atoms: _165  and  _166
REMARK   65  A    between atoms: _165  and  _168
REMARK   66  A    between atoms: _168  and  _169
REMARK   67  A    between atoms: _169  and  _170
REMARK   68  A    between atoms: _170  and  _171
REMARK   69  A    between atoms: _180  and  _182
REMARK   70  A    between atoms: _182  and  _183
REMARK   71  A    between atoms: _182  and  _185
REMARK   72  A    between atoms: _185  and  _186
REMARK   73  A    between atoms: _186  and  _187
REMARK   74  A    between atoms: _190  and  _192
REMARK   75  A    between atoms: _192  and  _193
REMARK   76  A    between atoms: _192  and  _195
REMARK   77  A    between atoms: _195  and  _196
REMARK   78  A    between atoms: _196  and  _197
REMARK   79  A    between atoms: _202  and  _204
REMARK   80  A    between atoms: _204  and  _205
REMARK   81  A    between atoms: _204  and  _207
REMARK   82  A    between atoms: _207  and  _208
REMARK   83  A    between atoms: _208  and  _209
REMARK   84  A    between atoms: _209  and  _210
REMARK   85  A    between atoms: _210  and  _211
REMARK   86  A    between atoms: _215  and  _217
REMARK   87  A    between atoms: _217  and  _218
REMARK   88  A    between atoms: _221  and  _223
REMARK   89  A    between atoms: _223  and  _224
REMARK   90  A    between atoms: _226  and  _228
REMARK   91  A    between atoms: _228  and  _229
REMARK   92  A    between atoms: _228  and  _231
REMARK   93  A    between atoms: _231  and  _232
REMARK   94  A    between atoms: _237  and  _239
REMARK   95  A    between atoms: _239  and  _240
REMARK   96  A    between atoms: _239  and  _242
REMARK   97  A    between atoms: _242  and  _243
REMARK   98  A    between atoms: _243  and  _244
REMARK   99  A    between atoms: _247  and  _249
REMARK  100  A    between atoms: _249  and  _250
REMARK  101  A    between atoms: _249  and  _252
REMARK  102  A    between atoms: _252  and  _253
REMARK  103  A    between atoms: _253  and  _254
REMARK  104  A    between atoms: _259  and  _261
REMARK  105  A    between atoms: _261  and  _262
REMARK  106  A    between atoms: _261  and  _264
REMARK  107  A    between atoms: _264  and  _265
REMARK  108  A    between atoms: _267  and  _269
REMARK  109  A    between atoms: _269  and  _270
REMARK  110  A    between atoms: _269  and  _272
REMARK  111  A    between atoms: _272  and  _273
REMARK  112  A    between atoms: _279  and  _281
REMARK  113  A    between atoms: _281  and  _282
REMARK  114  A    between atoms: _281  and  _284
REMARK  115  A    between atoms: _284  and  _285
REMARK  116  A    between atoms: _285  and  _286
REMARK  117  A    between atoms: _286  and  _287
REMARK  118  A    between atoms: _296  and  _298
REMARK  119  A    between atoms: _298  and  _299
REMARK  120  A    between atoms: _298  and  _301
REMARK  121  A    between atoms: _304  and  _306
REMARK  122  A    between atoms: _306  and  _307
REMARK  123  A    between atoms: _306  and  _309
REMARK  124  A    between atoms: _309  and  _310
REMARK  125  A    between atoms: _313  and  _315
REMARK  126  A    between atoms: _315  and  _316
REMARK  127  A    between atoms: _315  and  _318
REMARK  128  A    between atoms: _318  and  _319
REMARK  129  A    between atoms: _322  and  _324
REMARK  130  A    between atoms: _324  and  _325
REMARK  131  A    between atoms: _324  and  _327
REMARK  132  A    between atoms: _327  and  _328
REMARK  133  A    between atoms: _331  and  _333
REMARK  134  A    between atoms: _333  and  _334
REMARK  135  A    between atoms: _333  and  _336
REMARK  136  A    between atoms: _336  and  _337
REMARK  137  A    between atoms: _340  and  _342
REMARK  138  A    between atoms: _342  and  _343
REMARK  139  A    between atoms: _342  and  _345
REMARK  140  A    between atoms: _345  and  _346
REMARK  141  A    between atoms: _351  and  _352
REMARK  142  A    between atoms: _354  and  _356
REMARK  143  A    between atoms: _356  and  _357
REMARK  144  A    between atoms: _356  and  _359
REMARK  145  A    between atoms: _359  and  _360
REMARK  146  A    between atoms: _363  and  _365
REMARK  147  A    between atoms: _365  and  _366
REMARK  148  A    between atoms: _365  and  _368
REMARK  149  A    between atoms: _371  and  _373
REMARK  150  A    between atoms: _373  and  _374
REMARK  151  A    between atoms: _373  and  _376
REMARK  152  A    between atoms: _376  and  _377
REMARK  153  A    between atoms: _380  and  _382
REMARK  154  A    between atoms: _382  and  _383
REMARK  155  A    between atoms: _382  and  _385
REMARK  156  A    between atoms: _385  and  _386
REMARK  157  A    between atoms: _388  and  _390
REMARK  158  A    between atoms: _390  and  _391
REMARK  159  A    between atoms: _393  and  _395
REMARK  160  A    between atoms: _395  and  _396
REMARK  161  A    between atoms: _395  and  _398
REMARK  162  A    between atoms: _398  and  _399
REMARK  163  A    between atoms: _399  and  _640
REMARK  164  A    between atoms: _400  and  _402
REMARK  165  A    between atoms: _402  and  _403
REMARK  166  A    between atoms: _402  and  _405
REMARK  167  A    between atoms: _405  and  _406
REMARK  168  A    between atoms: _411  and  _412
REMARK  169  A    between atoms: _414  and  _416
REMARK  170  A    between atoms: _416  and  _417
REMARK  171  A    between atoms: _416  and  _419
REMARK  172  A    between atoms: _419  and  _420
REMARK  173  A    between atoms: _420  and  _421
REMARK  174  A    between atoms: _426  and  _428
REMARK  175  A    between atoms: _428  and  _429
REMARK  176  A    between atoms: _428  and  _431
REMARK  177  A    between atoms: _431  and  _432
REMARK  178  A    between atoms: _437  and  _438
REMARK  179  A    between atoms: _440  and  _442
REMARK  180  A    between atoms: _442  and  _443
REMARK  181  A    between atoms: _442  and  _445
REMARK  182  A    between atoms: _445  and  _446
REMARK  183  A    between atoms: _451  and  _452
REMARK  184  A    between atoms: _454  and  _456
REMARK  185  A    between atoms: _456  and  _457
REMARK  186  A    between atoms: _456  and  _459
REMARK  187  A    between atoms: _459  and  _460
REMARK  188  A    between atoms: _463  and  _465
REMARK  189  A    between atoms: _465  and  _466
REMARK  190  A    between atoms: _469  and  _471
REMARK  191  A    between atoms: _471  and  _472
REMARK  192  A    between atoms: _475  and  _477
REMARK  193  A    between atoms: _477  and  _478
REMARK  194  A    between atoms: _477  and  _480
REMARK  195  A    between atoms: _480  and  _481
REMARK  196  A    between atoms: _484  and  _486
REMARK  197  A    between atoms: _486  and  _487
REMARK  198  A    between atoms: _486  and  _489
REMARK  199  A    between atoms: _489  and  _490
REMARK  200  A    between atoms: _493  and  _495
REMARK  201  A    between atoms: _495  and  _496
REMARK  202  A    between atoms: _495  and  _498
REMARK  203  A    between atoms: _498  and  _499
REMARK  204  A    between atoms: _502  and  _504
REMARK  205  A    between atoms: _504  and  _505
REMARK  206  A    between atoms: _504  and  _507
REMARK  207  A    between atoms: _507  and  _508
REMARK  208  A    between atoms: _508  and  _509
REMARK  209  A    between atoms: _509  and  _510
REMARK  210  A    between atoms: _510  and  _511
REMARK  211  A    between atoms: _515  and  _517
REMARK  212  A    between atoms: _517  and  _518
REMARK  213  A    between atoms: _517  and  _520
REMARK  214  A    between atoms: _520  and  _521
REMARK  215  A    between atoms: _526  and  _528
REMARK  216  A    between atoms: _528  and  _529
REMARK  217  A    between atoms: _528  and  _531
REMARK  218  A    between atoms: _531  and  _532
REMARK  219  A    between atoms: _532  and  _533
REMARK  220  A    between atoms: _533  and  _534
REMARK  221  A    between atoms: _534  and  _535
REMARK  222  A    between atoms: _539  and  _541
REMARK  223  A    between atoms: _541  and  _542
REMARK  224  A    between atoms: _541  and  _544
REMARK  225  A    between atoms: _544  and  _545
REMARK  226  A    between atoms: _555  and  _557
REMARK  227  A    between atoms: _557  and  _558
REMARK  228  A    between atoms: _561  and  _563
REMARK  229  A    between atoms: _563  and  _564
REMARK  230  A    between atoms: _566  and  _568
REMARK  231  A    between atoms: _568  and  _569
REMARK  232  A    between atoms: _568  and  _571
REMARK  233  A    between atoms: _571  and  _572
REMARK  234  A    between atoms: _572  and  _573
REMARK  235  A    between atoms: _576  and  _578
REMARK  236  A    between atoms: _578  and  _579
REMARK  237  A    between atoms: _578  and  _581
REMARK  238  A    between atoms: _581  and  _582
REMARK  239  A    between atoms: _582  and  _583
REMARK  240  A    between atoms: _583  and  _584
REMARK  241  A    between atoms: _593  and  _595
REMARK  242  A    between atoms: _595  and  _596
REMARK  243  A    between atoms: _595  and  _598
REMARK  244  A    between atoms: _598  and  _599
REMARK  245  A    between atoms: _602  and  _604
REMARK  246  A    between atoms: _604  and  _605
REMARK  247  A    between atoms: _604  and  _607
REMARK  248  A    between atoms: _607  and  _608
REMARK  249  A    between atoms: _613  and  _614
REMARK  250  A    between atoms: _616  and  _618
REMARK  251  A    between atoms: _618  and  _619
REMARK  252  A    between atoms: _618  and  _621
REMARK  253  A    between atoms: _621  and  _622
REMARK  254  A    between atoms: _625  and  _627
REMARK  255  A    between atoms: _627  and  _628
REMARK  256  A    between atoms: _627  and  _630
REMARK  257  A    between atoms: _630  and  _631
REMARK  258  A    between atoms: _634  and  _636
REMARK  259  A    between atoms: _636  and  _637
REMARK  260  A    between atoms: _636  and  _639
REMARK  261  A    between atoms: _639  and  _640
REMARK  262  A    between atoms: _641  and  _643
REMARK  263  A    between atoms: _643  and  _644
REMARK  264  A    between atoms: _643  and  _646
REMARK  265  A    between atoms: _649  and  _651
REMARK  266  A    between atoms: _651  and  _652
REMARK  267  A    between atoms: _651  and  _654
REMARK  268  A    between atoms: _654  and  _655
REMARK  269  A    between atoms: _655  and  _656
REMARK  270  A    between atoms: _659  and  _661
REMARK  271  A    between atoms: _661  and  _662
REMARK  272  A    between atoms: _661  and  _664
REMARK  273  A    between atoms: _664  and  _665
REMARK  274  A    between atoms: _675  and  _677
REMARK  275  A    between atoms: _677  and  _678
REMARK  276  A    between atoms: _677  and  _680
REMARK  277  A    between atoms: _680  and  _681
REMARK  278  A    between atoms: _684  and  _686
REMARK  279  A    between atoms: _686  and  _687
REMARK  280  A    between atoms: _686  and  _689
REMARK  281  A    between atoms: _689  and  _690
REMARK  282  A    between atoms: _695  and  _696
REMARK                            x       y       z     vdW  Elec       q    Type
REMARK                         _______ _______ _______ _____ _____    ______ ____
ROOT
ATOM      1  CA  ARG A   1      41.943  63.836   8.244  0.00  0.00    +0.145 C 
ENDROOT
BRANCH   1   2
ATOM      2  C   ARG A   1      41.840  62.636   7.297  0.00  0.00    +0.238 C 
ATOM      3  N   GLU A   2      42.263  61.468   7.762  0.00  0.00    -0.298 N 
ATOM      4  H   GLU A   2      42.647  61.406   8.726  0.00  0.00    +0.150 HD
ATOM      5  O   ARG A   1      41.376  62.766   6.160  0.00  0.00    -0.274 OA
BRANCH   3   6
ATOM      6  CA  GLU A   2      42.194  60.265   6.929  0.00  0.00    +0.137 C 
BRANCH   6   7
ATOM      7  C   GLU A   2      40.745  59.855   6.663  0.00  0.00    +0.227 C 
ATOM      8  O   GLU A   2      40.420  59.364   5.582  0.00  0.00    -0.286 OA
ENDBRANCH   6   7
BRANCH   6   9
ATOM      9  CB  GLU A   2      42.950  59.113   7.595  0.00  0.00    +0.039 C 
BRANCH   9  10
ATOM     10  CG  GLU A   2      44.446  59.363   7.770  0.00  0.00    +0.116 C 
BRANCH  10  11
ATOM     11  CD  GLU A   2      45.154  59.633   6.453  0.00  0.00    +0.365 C 
ATOM     12  OE2 GLU A   2      46.007  60.545   6.409  0.00  0.00    -0.246 OA
ATOM     13  OE1 GLU A   2      44.868  58.923   5.466  0.00  0.00    -0.246 OA
ENDBRANCH  10  11
ENDBRANCH   9  10
ENDBRANCH   6   9
ENDBRANCH   3   6
ENDBRANCH   1   2
BRANCH   1  14
ATOM     14  N   ARG A   1      41.459  63.526   9.585  0.00  0.00    -0.238 NA
ATOM     15  H   ARG A   1      42.120  63.580  10.386  0.00  0.00    +0.142 HD
ENDBRANCH   1  14
BRANCH   1  16
ATOM     16  CB  ARG A   1      43.389  64.341   8.323  0.00  0.00    +0.030 C 
BRANCH  16  17
ATOM     17  CG  ARG A   1      44.063  64.549   6.978  0.00  0.00    +0.045 C 
BRANCH  17  18
ATOM     18  CD  ARG A   1      45.260  65.488   7.099  0.00  0.00    +0.174 C 
BRANCH  18  19
ATOM     19  NE  ARG A   1      46.053  65.256   8.307  0.00  0.00    -0.265 N 
ATOM     20  HE  ARG A   1      46.121  66.033   8.995  0.00  0.00    +0.259 HD
ATOM     21  CZ  ARG A   1      46.694  64.125   8.591  0.00  0.00    +0.342 C 
ATOM     22  NH2 ARG A   1      47.390  64.027   9.719  0.00  0.00    -0.292 N 
ATOM     23 HH21 ARG A   1      47.432  64.832  10.376  0.00  0.00    +0.255 HD
ATOM     24 HH22 ARG A   1      47.893  63.145   9.945  0.00  0.00    +0.255 HD
ATOM     25  NH1 ARG A   1      46.645  63.094   7.754  0.00  0.00    -0.292 N 
ATOM     26 HH11 ARG A   1      47.149  62.214   7.983  0.00  0.00    +0.255 HD
ATOM     27 HH12 ARG A   1      46.103  63.168   6.870  0.00  0.00    +0.255 HD
ENDBRANCH  18  19
ENDBRANCH  17  18
ENDBRANCH  16  17
ENDBRANCH   1  16
TORSDOF 11
REMARK  Name = ../refined-set-2016/1g7q/1g7q_pocket.pdb
REMARK  282 active torsions:
REMARK  status: ('A' for Active; 'I' for Inactive)
REMARK    1  A    between atoms: _1  and  _3
REMARK    2  A    between atoms: _3  and  _4
REMARK    3  A    between atoms: _3  and  _6
REMARK    4  A    between atoms: _6  and  _7
REMARK    5  A    between atoms: _10  and  _12
REMARK    6  A    between atoms: _12  and  _13
REMARK    7  A    between atoms: _12  and  _15
REMARK    8  A    between atoms: _15  and  _16
REMARK    9  A    between atoms: _16  and  _17
REMARK   10  A    between atoms: _17  and  _18
REMARK   11  A    between atoms: _27  and  _29
REMARK   12  A    between atoms: _29  and  _30
REMARK   13  A    between atoms: _29  and  _32
REMARK   14  A    between atoms: _32  and  _33
REMARK   15  A    between atoms: _38  and  _39
REMARK   16  A    between atoms: _41  and  _43
REMARK   17  A    between atoms: _43  and  _44
REMARK   18  A    between atoms: _43  and  _46
REMARK   19  A    between atoms: _46  and  _47
REMARK   20  A    between atoms: _53  and  _55
REMARK   21  A    between atoms: _55  and  _56
REMARK   22  A    between atoms: _55  and  _58
REMARK   23  A    between atoms: _61  and  _63
REMARK   24  A    between atoms: _63  and  _64
REMARK   25  A    between atoms: _63  and  _66
REMARK   26  A    between atoms: _66  and  _67
REMARK   27  A    between atoms: _72  and  _73
REMARK   28  A    between atoms: _75  and  _77
REMARK   29  A    between atoms: _77  and  _78
REMARK   30  A    between atoms: _77  and  _80
REMARK   31  A    between atoms: _80  and  _81
REMARK   32  A    between atoms: _81  and  _82
REMARK   33  A    between atoms: _85  and  _87
REMARK   34  A    between atoms: _87  and  _88
REMARK   35  A    between atoms: _87  and  _90
REMARK   36  A    between atoms: _93  and  _95
REMARK   37  A    between atoms: _95  and  _96
REMARK   38  A    between atoms: _98  and  _100
REMARK   39  A    between atoms: _100  and  _101
REMARK   40  A    between atoms: _100  and  _103
REMARK   41  A    between atoms: _106  and  _108
REMARK   42  A    between atoms: _108  and  _109
REMARK   43  A    between atoms: _108  and  _111
REMARK   44  A    between atoms: _111  and  _112
REMARK   45  A    between atoms: _118  and  _120
REMARK   46  A    between atoms: _120  and  _121
REMARK   47  A    between atoms: _120  and  _123
REMARK   48  A    between atoms: _126  and  _128
REMARK   49  A    between atoms: _128  and  _129
REMARK   50  A    between atoms: _128  and  _131
REMARK   51  A    between atoms: _131  and  _132
REMARK   52  A    between atoms: _137  and  _138
REMARK   53  A    between atoms: _140  and  _142
REMARK   54  A    between atoms: _142  and  _143
REMARK   55  A    between atoms: _142  and  _145
REMARK   56  A    between atoms: _145  and  _146
REMARK   57  A    between atoms: _146  and  _147
REMARK   58  A    between atoms: _149  and  _151
REMARK   59  A    between atoms: _151  and  _152
REMARK   60  A    between atoms: _151  and  _154
REMARK   61  A    between atoms: _154  and  _155
REMARK   62  A    between atoms: _160  and  _161
REMARK   63  A    between atoms: _163  and  _165
REMARK   64  A    between atoms: _165  and  _166
REMARK   65  A    between atoms: _165  and  _168
REMARK   66  A    between atoms: _168  and  _169
REMARK   67  A    between atoms: _169  and  _170
REMARK   68  A    between atoms: _170  and  _171
REMARK   69  A    between atoms: _180  and  _182
REMARK   70  A    between atoms: _182  and  _183
REMARK   71  A    between atoms: _182  and  _185
REMARK   72  A    between atoms: _185  and  _186
REMARK   73  A    between atoms: _186  and  _187
REMARK   74  A    between atoms: _190  and  _192
REMARK   75  A    between atoms: _192  and  _193
REMARK   76  A    between atoms: _192  and  _195
REMARK   77  A    between atoms: _195  and  _196
REMARK   78  A    between atoms: _196  and  _197
REMARK   79  A    between atoms: _202  and  _204
REMARK   80  A    between atoms: _204  and  _205
REMARK   81  A    between atoms: _204  and  _207
REMARK   82  A    between atoms: _207  and  _208
REMARK   83  A    between atoms: _208  and  _209
REMARK   84  A    between atoms: _209  and  _210
REMARK   85  A    between atoms: _210  and  _211
REMARK   86  A    between atoms: _215  and  _217
REMARK   87  A    between atoms: _217  and  _218
REMARK   88  A    between atoms: _221  and  _223
REMARK   89  A    between atoms: _223  and  _224
REMARK   90  A    between atoms: _226  and  _228
REMARK   91  A    between atoms: _228  and  _229
REMARK   92  A    between atoms: _228  and  _231
REMARK   93  A    between atoms: _231  and  _232
REMARK   94  A    between atoms: _237  and  _239
REMARK   95  A    between atoms: _239  and  _240
REMARK   96  A    between atoms: _239  and  _242
REMARK   97  A    between atoms: _242  and  _243
REMARK   98  A    between atoms: _243  and  _244
REMARK   99  A    between atoms: _247  and  _249
REMARK  100  A    between atoms: _249  and  _250
REMARK  101  A    between atoms: _249  and  _252
REMARK  102  A    between atoms: _252  and  _253
REMARK  103  A    between atoms: _253  and  _254
REMARK  104  A    between atoms: _259  and  _261
REMARK  105  A    between atoms: _261  and  _262
REMARK  106  A    between atoms: _261  and  _264
REMARK  107  A    between atoms: _264  and  _265
REMARK  108  A    between atoms: _267  and  _269
REMARK  109  A    between atoms: _269  and  _270
REMARK  110  A    between atoms: _269  and  _272
REMARK  111  A    between atoms: _272  and  _273
REMARK  112  A    between atoms: _279  and  _281
REMARK  113  A    between atoms: _281  and  _282
REMARK  114  A    between atoms: _281  and  _284
REMARK  115  A    between atoms: _284  and  _285
REMARK  116  A    between atoms: _285  and  _286
REMARK  117  A    between atoms: _286  and  _287
REMARK  118  A    between atoms: _296  and  _298
REMARK  119  A    between atoms: _298  and  _299
REMARK  120  A    between atoms: _298  and  _301
REMARK  121  A    between atoms: _304  and  _306
REMARK  122  A    between atoms: _306  and  _307
REMARK  123  A    between atoms: _306  and  _309
REMARK  124  A    between atoms: _309  and  _310
REMARK  125  A    between atoms: _313  and  _315
REMARK  126  A    between atoms: _315  and  _316
REMARK  127  A    between atoms: _315  and  _318
REMARK  128  A    between atoms: _318  and  _319
REMARK  129  A    between atoms: _322  and  _324
REMARK  130  A    between atoms: _324  and  _325
REMARK  131  A    between atoms: _324  and  _327
REMARK  132  A    between atoms: _327  and  _328
REMARK  133  A    between atoms: _331  and  _333
REMARK  134  A    between atoms: _333  and  _334
REMARK  135  A    between atoms: _333  and  _336
REMARK  136  A    between atoms: _336  and  _337
REMARK  137  A    between atoms: _340  and  _342
REMARK  138  A    between atoms: _342  and  _343
REMARK  139  A    between atoms: _342  and  _345
REMARK  140  A    between atoms: _345  and  _346
REMARK  141  A    between atoms: _351  and  _352
REMARK  142  A    between atoms: _354  and  _356
REMARK  143  A    between atoms: _356  and  _357
REMARK  144  A    between atoms: _356  and  _359
REMARK  145  A    between atoms: _359  and  _360
REMARK  146  A    between atoms: _363  and  _365
REMARK  147  A    between atoms: _365  and  _366
REMARK  148  A    between atoms: _365  and  _368
REMARK  149  A    between atoms: _371  and  _373
REMARK  150  A    between atoms: _373  and  _374
REMARK  151  A    between atoms: _373  and  _376
REMARK  152  A    between atoms: _376  and  _377
REMARK  153  A    between atoms: _380  and  _382
REMARK  154  A    between atoms: _382  and  _383
REMARK  155  A    between atoms: _382  and  _385
REMARK  156  A    between atoms: _385  and  _386
REMARK  157  A    between atoms: _388  and  _390
REMARK  158  A    between atoms: _390  and  _391
REMARK  159  A    between atoms: _393  and  _395
REMARK  160  A    between atoms: _395  and  _396
REMARK  161  A    between atoms: _395  and  _398
REMARK  162  A    between atoms: _398  and  _399
REMARK  163  A    between atoms: _399  and  _640
REMARK  164  A    between atoms: _400  and  _402
REMARK  165  A    between atoms: _402  and  _403
REMARK  166  A    between atoms: _402  and  _405
REMARK  167  A    between atoms: _405  and  _406
REMARK  168  A    between atoms: _411  and  _412
REMARK  169  A    between atoms: _414  and  _416
REMARK  170  A    between atoms: _416  and  _417
REMARK  171  A    between atoms: _416  and  _419
REMARK  172  A    between atoms: _419  and  _420
REMARK  173  A    between atoms: _420  and  _421
REMARK  174  A    between atoms: _426  and  _428
REMARK  175  A    between atoms: _428  and  _429
REMARK  176  A    between atoms: _428  and  _431
REMARK  177  A    between atoms: _431  and  _432
REMARK  178  A    between atoms: _437  and  _438
REMARK  179  A    between atoms: _440  and  _442
REMARK  180  A    between atoms: _442  and  _443
REMARK  181  A    between atoms: _442  and  _445
REMARK  182  A    between atoms: _445  and  _446
REMARK  183  A    between atoms: _451  and  _452
REMARK  184  A    between atoms: _454  and  _456
REMARK  185  A    between atoms: _456  and  _457
REMARK  186  A    between atoms: _456  and  _459
REMARK  187  A    between atoms: _459  and  _460
REMARK  188  A    between atoms: _463  and  _465
REMARK  189  A    between atoms: _465  and  _466
REMARK  190  A    between atoms: _469  and  _471
REMARK  191  A    between atoms: _471  and  _472
REMARK  192  A    between atoms: _475  and  _477
REMARK  193  A    between atoms: _477  and  _478
REMARK  194  A    between atoms: _477  and  _480
REMARK  195  A    between atoms: _480  and  _481
REMARK  196  A    between atoms: _484  and  _486
REMARK  197  A    between atoms: _486  and  _487
REMARK  198  A    between atoms: _486  and  _489
REMARK  199  A    between atoms: _489  and  _490
REMARK  200  A    between atoms: _493  and  _495
REMARK  201  A    between atoms: _495  and  _496
REMARK  202  A    between atoms: _495  and  _498
REMARK  203  A    between atoms: _498  and  _499
REMARK  204  A    between atoms: _502  and  _504
REMARK  205  A    between atoms: _504  and  _505
REMARK  206  A    between atoms: _504  and  _507
REMARK  207  A    between atoms: _507  and  _508
REMARK  208  A    between atoms: _508  and  _509
REMARK  209  A    between atoms: _509  and  _510
REMARK  210  A    between atoms: _510  and  _511
REMARK  211  A    between atoms: _515  and  _517
REMARK  212  A    between atoms: _517  and  _518
REMARK  213  A    between atoms: _517  and  _520
REMARK  214  A    between atoms: _520  and  _521
REMARK  215  A    between atoms: _526  and  _528
REMARK  216  A    between atoms: _528  and  _529
REMARK  217  A    between atoms: _528  and  _531
REMARK  218  A    between atoms: _531  and  _532
REMARK  219  A    between atoms: _532  and  _533
REMARK  220  A    between atoms: _533  and  _534
REMARK  221  A    between atoms: _534  and  _535
REMARK  222  A    between atoms: _539  and  _541
REMARK  223  A    between atoms: _541  and  _542
REMARK  224  A    between atoms: _541  and  _544
REMARK  225  A    between atoms: _544  and  _545
REMARK  226  A    between atoms: _555  and  _557
REMARK  227  A    between atoms: _557  and  _558
REMARK  228  A    between atoms: _561  and  _563
REMARK  229  A    between atoms: _563  and  _564
REMARK  230  A    between atoms: _566  and  _568
REMARK  231  A    between atoms: _568  and  _569
REMARK  232  A    between atoms: _568  and  _571
REMARK  233  A    between atoms: _571  and  _572
REMARK  234  A    between atoms: _572  and  _573
REMARK  235  A    between atoms: _576  and  _578
REMARK  236  A    between atoms: _578  and  _579
REMARK  237  A    between atoms: _578  and  _581
REMARK  238  A    between atoms: _581  and  _582
REMARK  239  A    between atoms: _582  and  _583
REMARK  240  A    between atoms: _583  and  _584
REMARK  241  A    between atoms: _593  and  _595
REMARK  242  A    between atoms: _595  and  _596
REMARK  243  A    between atoms: _595  and  _598
REMARK  244  A    between atoms: _598  and  _599
REMARK  245  A    between atoms: _602  and  _604
REMARK  246  A    between atoms: _604  and  _605
REMARK  247  A    between atoms: _604  and  _607
REMARK  248  A    between atoms: _607  and  _608
REMARK  249  A    between atoms: _613  and  _614
REMARK  250  A    between atoms: _616  and  _618
REMARK  251  A    between atoms: _618  and  _619
REMARK  252  A    between atoms: _618  and  _621
REMARK  253  A    between atoms: _621  and  _622
REMARK  254  A    between atoms: _625  and  _627
REMARK  255  A    between atoms: _627  and  _628
REMARK  256  A    between atoms: _627  and  _630
REMARK  257  A    between atoms: _630  and  _631
REMARK  258  A    between atoms: _634  and  _636
REMARK  259  A    between atoms: _636  and  _637
REMARK  260  A    between atoms: _636  and  _639
REMARK  261  A    between atoms: _639  and  _640
REMARK  262  A    between atoms: _641  and  _643
REMARK  263  A    between atoms: _643  and  _644
REMARK  264  A    between atoms: _643  and  _646
REMARK  265  A    between atoms: _649  and  _651
REMARK  266  A    between atoms: _651  and  _652
REMARK  267  A    between atoms: _651  and  _654
REMARK  268  A    between atoms: _654  and  _655
REMARK  269  A    between atoms: _655  and  _656
REMARK  270  A    between atoms: _659  and  _661
REMARK  271  A    between atoms: _661  and  _662
REMARK  272  A    between atoms: _661  and  _664
REMARK  273  A    between atoms: _664  and  _665
REMARK  274  A    between atoms: _675  and  _677
REMARK  275  A    between atoms: _677  and  _678
REMARK  276  A    between atoms: _677  and  _680
REMARK  277  A    between atoms: _680  and  _681
REMARK  278  A    between atoms: _684  and  _686
REMARK  279  A    between atoms: _686  and  _687
REMARK  280  A    between atoms: _686  and  _689
REMARK  281  A    between atoms: _689  and  _690
REMARK  282  A    between atoms: _695  and  _696
REMARK                            x       y       z     vdW  Elec       q    Type
REMARK                         _______ _______ _______ _____ _____    ______ ____
ROOT
ATOM      1  CA  LYS A   2      39.982  61.902   2.746  0.00  0.00    +0.149 C 
ENDROOT
BRANCH   1   3
ATOM      2  C   GLN A   1      38.098  62.569   4.116  0.00  0.00    +0.238 C 
ATOM      3  N   LYS A   2      39.378  62.223   4.033  0.00  0.00    -0.297 N 
ATOM      4  H   LYS A   2      39.956  62.181   4.897  0.00  0.00    +0.150 HD
ATOM      5  O   GLN A   1      37.366  62.649   3.128  0.00  0.00    -0.274 OA
BRANCH   2   6
ATOM      6  CA  GLN A   1      37.555  62.862   5.514  0.00  0.00    +0.145 C 
BRANCH   6   7
ATOM      7  N   GLN A   1      38.102  61.933   6.498  0.00  0.00    -0.238 NA
ATOM      8  H   GLN A   1      38.693  62.292   7.275  0.00  0.00    +0.142 HD
ENDBRANCH   6   7
BRANCH   6   9
ATOM      9  CB  GLN A   1      37.864  64.307   5.916  0.00  0.00    +0.036 C 
BRANCH   9  10
ATOM     10  CG  GLN A   1      37.099  64.759   7.151  0.00  0.00    +0.087 C 
BRANCH  10  11
ATOM     11  CD  GLN A   1      35.604  64.520   7.023  0.00  0.00    +0.219 C 
ATOM     12  NE2 GLN A   1      35.034  63.789   7.978  0.00  0.00    -0.329 N 
ATOM     13 HE21 GLN A   1      35.609  63.416   8.760  0.00  0.00    +0.145 HD
ATOM     14 HE22 GLN A   1      34.014  63.591   7.942  0.00  0.00    +0.145 HD
ATOM     15  OE1 GLN A   1      34.969  64.985   6.076  0.00  0.00    -0.275 OA
ENDBRANCH  10  11
ENDBRANCH   9  10
ENDBRANCH   6   9
ENDBRANCH   2   6
ENDBRANCH   1   3
BRANCH   1  16
ATOM     16  C   LYS A   2      39.335  60.631   2.182  0.00  0.00    +0.241 C 
ATOM     17  N   ALA A   3      39.114  59.641   3.042  0.00  0.00    -0.298 N 
ATOM     18  H   ALA A   3      39.385  59.758   4.039  0.00  0.00    +0.150 HD
ATOM     19  O   LYS A   2      39.037  60.550   0.990  0.00  0.00    -0.273 OA
BRANCH  17  20
ATOM     20  CA  ALA A   3      38.497  58.394   2.605  0.00  0.00    +0.137 C 
ATOM     21  CB  ALA A   3      38.459  57.386   3.758  0.00  0.00    +0.030 C 
BRANCH  20  22
ATOM     22  C   ALA A   3      37.084  58.630   2.077  0.00  0.00    +0.227 C 
ATOM     23  O   ALA A   3      36.682  58.038   1.074  0.00  0.00    -0.286 OA
ENDBRANCH  20  22
ENDBRANCH  17  20
ENDBRANCH   1  16
BRANCH   1  24
ATOM     24  CB  LYS A   2      41.500  61.718   2.900  0.00  0.00    +0.029 C 
BRANCH  24  25
ATOM     25  CG  LYS A   2      42.211  61.234   1.632  0.00  0.00    +0.000 C 
BRANCH  25  26
ATOM     26  CD  LYS A   2      43.663  61.724   1.547  0.00  0.00    -0.024 C 
BRANCH  26  27
ATOM     27  CE  LYS A   2      44.497  61.322   2.757  0.00  0.00    -0.086 C 
BRANCH  27  28
ATOM     28  NZ  LYS A   2      44.628  59.839   2.892  0.00  0.00    +0.380 N 
ATOM     29  HZ1 LYS A   2      45.204  59.618   3.729  0.00  0.00    -0.089 HD
ATOM     30  HZ2 LYS A   2      43.683  59.417   2.998  0.00  0.00    -0.089 HD
ATOM     31  HZ3 LYS A   2      45.088  59.454   2.042  0.00  0.00    -0.089 HD
ENDBRANCH  27  28
ENDBRANCH  26  27
ENDBRANCH  25  26
ENDBRANCH  24  25
ENDBRANCH   1  24
TORSDOF 14
REMARK  Name = ../refined-set-2016/1g7q/1g7q_pocket.pdb
REMARK  282 active torsions:
REMARK  status: ('A' for Active; 'I' for Inactive)
REMARK    1  A    between atoms: _1  and  _3
REMARK    2  A    between atoms: _3  and  _4
REMARK    3  A    between atoms: _3  and  _6
REMARK    4  A    between atoms: _6  and  _7
REMARK    5  A    between atoms: _10  and  _12
REMARK    6  A    between atoms: _12  and  _13
REMARK    7  A    between atoms: _12  and  _15
REMARK    8  A    between atoms: _15  and  _16
REMARK    9  A    between atoms: _16  and  _17
REMARK   10  A    between atoms: _17  and  _18
REMARK   11  A    between atoms: _27  and  _29
REMARK   12  A    between atoms: _29  and  _30
REMARK   13  A    between atoms: _29  and  _32
REMARK   14  A    between atoms: _32  and  _33
REMARK   15  A    between atoms: _38  and  _39
REMARK   16  A    between atoms: _41  and  _43
REMARK   17  A    between atoms: _43  and  _44
REMARK   18  A    between atoms: _43  and  _46
REMARK   19  A    between atoms: _46  and  _47
REMARK   20  A    between atoms: _53  and  _55
REMARK   21  A    between atoms: _55  and  _56
REMARK   22  A    between atoms: _55  and  _58
REMARK   23  A    between atoms: _61  and  _63
REMARK   24  A    between atoms: _63  and  _64
REMARK   25  A    between atoms: _63  and  _66
REMARK   26  A    between atoms: _66  and  _67
REMARK   27  A    between atoms: _72  and  _73
REMARK   28  A    between atoms: _75  and  _77
REMARK   29  A    between atoms: _77  and  _78
REMARK   30  A    between atoms: _77  and  _80
REMARK   31  A    between atoms: _80  and  _81
REMARK   32  A    between atoms: _81  and  _82
REMARK   33  A    between atoms: _85  and  _87
REMARK   34  A    between atoms: _87  and  _88
REMARK   35  A    between atoms: _87  and  _90
REMARK   36  A    between atoms: _93  and  _95
REMARK   37  A    between atoms: _95  and  _96
REMARK   38  A    between atoms: _98  and  _100
REMARK   39  A    between atoms: _100  and  _101
REMARK   40  A    between atoms: _100  and  _103
REMARK   41  A    between atoms: _106  and  _108
REMARK   42  A    between atoms: _108  and  _109
REMARK   43  A    between atoms: _108  and  _111
REMARK   44  A    between atoms: _111  and  _112
REMARK   45  A    between atoms: _118  and  _120
REMARK   46  A    between atoms: _120  and  _121
REMARK   47  A    between atoms: _120  and  _123
REMARK   48  A    between atoms: _126  and  _128
REMARK   49  A    between atoms: _128  and  _129
REMARK   50  A    between atoms: _128  and  _131
REMARK   51  A    between atoms: _131  and  _132
REMARK   52  A    between atoms: _137  and  _138
REMARK   53  A    between atoms: _140  and  _142
REMARK   54  A    between atoms: _142  and  _143
REMARK   55  A    between atoms: _142  and  _145
REMARK   56  A    between atoms: _145  and  _146
REMARK   57  A    between atoms: _146  and  _147
REMARK   58  A    between atoms: _149  and  _151
REMARK   59  A    between atoms: _151  and  _152
REMARK   60  A    between atoms: _151  and  _154
REMARK   61  A    between atoms: _154  and  _155
REMARK   62  A    between atoms: _160  and  _161
REMARK   63  A    between atoms: _163  and  _165
REMARK   64  A    between atoms: _165  and  _166
REMARK   65  A    between atoms: _165  and  _168
REMARK   66  A    between atoms: _168  and  _169
REMARK   67  A    between atoms: _169  and  _170
REMARK   68  A    between atoms: _170  and  _171
REMARK   69  A    between atoms: _180  and  _182
REMARK   70  A    between atoms: _182  and  _183
REMARK   71  A    between atoms: _182  and  _185
REMARK   72  A    between atoms: _185  and  _186
REMARK   73  A    between atoms: _186  and  _187
REMARK   74  A    between atoms: _190  and  _192
REMARK   75  A    between atoms: _192  and  _193
REMARK   76  A    between atoms: _192  and  _195
REMARK   77  A    between atoms: _195  and  _196
REMARK   78  A    between atoms: _196  and  _197
REMARK   79  A    between atoms: _202  and  _204
REMARK   80  A    between atoms: _204  and  _205
REMARK   81  A    between atoms: _204  and  _207
REMARK   82  A    between atoms: _207  and  _208
REMARK   83  A    between atoms: _208  and  _209
REMARK   84  A    between atoms: _209  and  _210
REMARK   85  A    between atoms: _210  and  _211
REMARK   86  A    between atoms: _215  and  _217
REMARK   87  A    between atoms: _217  and  _218
REMARK   88  A    between atoms: _221  and  _223
REMARK   89  A    between atoms: _223  and  _224
REMARK   90  A    between atoms: _226  and  _228
REMARK   91  A    between atoms: _228  and  _229
REMARK   92  A    between atoms: _228  and  _231
REMARK   93  A    between atoms: _231  and  _232
REMARK   94  A    between atoms: _237  and  _239
REMARK   95  A    between atoms: _239  and  _240
REMARK   96  A    between atoms: _239  and  _242
REMARK   97  A    between atoms: _242  and  _243
REMARK   98  A    between atoms: _243  and  _244
REMARK   99  A    between atoms: _247  and  _249
REMARK  100  A    between atoms: _249  and  _250
REMARK  101  A    between atoms: _249  and  _252
REMARK  102  A    between atoms: _252  and  _253
REMARK  103  A    between atoms: _253  and  _254
REMARK  104  A    between atoms: _259  and  _261
REMARK  105  A    between atoms: _261  and  _262
REMARK  106  A    between atoms: _261  and  _264
REMARK  107  A    between atoms: _264  and  _265
REMARK  108  A    between atoms: _267  and  _269
REMARK  109  A    between atoms: _269  and  _270
REMARK  110  A    between atoms: _269  and  _272
REMARK  111  A    between atoms: _272  and  _273
REMARK  112  A    between atoms: _279  and  _281
REMARK  113  A    between atoms: _281  and  _282
REMARK  114  A    between atoms: _281  and  _284
REMARK  115  A    between atoms: _284  and  _285
REMARK  116  A    between atoms: _285  and  _286
REMARK  117  A    between atoms: _286  and  _287
REMARK  118  A    between atoms: _296  and  _298
REMARK  119  A    between atoms: _298  and  _299
REMARK  120  A    between atoms: _298  and  _301
REMARK  121  A    between atoms: _304  and  _306
REMARK  122  A    between atoms: _306  and  _307
REMARK  123  A    between atoms: _306  and  _309
REMARK  124  A    between atoms: _309  and  _310
REMARK  125  A    between atoms: _313  and  _315
REMARK  126  A    between atoms: _315  and  _316
REMARK  127  A    between atoms: _315  and  _318
REMARK  128  A    between atoms: _318  and  _319
REMARK  129  A    between atoms: _322  and  _324
REMARK  130  A    between atoms: _324  and  _325
REMARK  131  A    between atoms: _324  and  _327
REMARK  132  A    between atoms: _327  and  _328
REMARK  133  A    between atoms: _331  and  _333
REMARK  134  A    between atoms: _333  and  _334
REMARK  135  A    between atoms: _333  and  _336
REMARK  136  A    between atoms: _336  and  _337
REMARK  137  A    between atoms: _340  and  _342
REMARK  138  A    between atoms: _342  and  _343
REMARK  139  A    between atoms: _342  and  _345
REMARK  140  A    between atoms: _345  and  _346
REMARK  141  A    between atoms: _351  and  _352
REMARK  142  A    between atoms: _354  and  _356
REMARK  143  A    between atoms: _356  and  _357
REMARK  144  A    between atoms: _356  and  _359
REMARK  145  A    between atoms: _359  and  _360
REMARK  146  A    between atoms: _363  and  _365
REMARK  147  A    between atoms: _365  and  _366
REMARK  148  A    between atoms: _365  and  _368
REMARK  149  A    between atoms: _371  and  _373
REMARK  150  A    between atoms: _373  and  _374
REMARK  151  A    between atoms: _373  and  _376
REMARK  152  A    between atoms: _376  and  _377
REMARK  153  A    between atoms: _380  and  _382
REMARK  154  A    between atoms: _382  and  _383
REMARK  155  A    between atoms: _382  and  _385
REMARK  156  A    between atoms: _385  and  _386
REMARK  157  A    between atoms: _388  and  _390
REMARK  158  A    between atoms: _390  and  _391
REMARK  159  A    between atoms: _393  and  _395
REMARK  160  A    between atoms: _395  and  _396
REMARK  161  A    between atoms: _395  and  _398
REMARK  162  A    between atoms: _398  and  _399
REMARK  163  A    between atoms: _399  and  _640
REMARK  164  A    between atoms: _400  and  _402
REMARK  165  A    between atoms: _402  and  _403
REMARK  166  A    between atoms: _402  and  _405
REMARK  167  A    between atoms: _405  and  _406
REMARK  168  A    between atoms: _411  and  _412
REMARK  169  A    between atoms: _414  and  _416
REMARK  170  A    between atoms: _416  and  _417
REMARK  171  A    between atoms: _416  and  _419
REMARK  172  A    between atoms: _419  and  _420
REMARK  173  A    between atoms: _420  and  _421
REMARK  174  A    between atoms: _426  and  _428
REMARK  175  A    between atoms: _428  and  _429
REMARK  176  A    between atoms: _428  and  _431
REMARK  177  A    between atoms: _431  and  _432
REMARK  178  A    between atoms: _437  and  _438
REMARK  179  A    between atoms: _440  and  _442
REMARK  180  A    between atoms: _442  and  _443
REMARK  181  A    between atoms: _442  and  _445
REMARK  182  A    between atoms: _445  and  _446
REMARK  183  A    between atoms: _451  and  _452
REMARK  184  A    between atoms: _454  and  _456
REMARK  185  A    between atoms: _456  and  _457
REMARK  186  A    between atoms: _456  and  _459
REMARK  187  A    between atoms: _459  and  _460
REMARK  188  A    between atoms: _463  and  _465
REMARK  189  A    between atoms: _465  and  _466
REMARK  190  A    between atoms: _469  and  _471
REMARK  191  A    between atoms: _471  and  _472
REMARK  192  A    between atoms: _475  and  _477
REMARK  193  A    between atoms: _477  and  _478
REMARK  194  A    between atoms: _477  and  _480
REMARK  195  A    between atoms: _480  and  _481
REMARK  196  A    between atoms: _484  and  _486
REMARK  197  A    between atoms: _486  and  _487
REMARK  198  A    between atoms: _486  and  _489
REMARK  199  A    between atoms: _489  and  _490
REMARK  200  A    between atoms: _493  and  _495
REMARK  201  A    between atoms: _495  and  _496
REMARK  202  A    between atoms: _495  and  _498
REMARK  203  A    between atoms: _498  and  _499
REMARK  204  A    between atoms: _502  and  _504
REMARK  205  A    between atoms: _504  and  _505
REMARK  206  A    between atoms: _504  and  _507
REMARK  207  A    between atoms: _507  and  _508
REMARK  208  A    between atoms: _508  and  _509
REMARK  209  A    between atoms: _509  and  _510
REMARK  210  A    between atoms: _510  and  _511
REMARK  211  A    between atoms: _515  and  _517
REMARK  212  A    between atoms: _517  and  _518
REMARK  213  A    between atoms: _517  and  _520
REMARK  214  A    between atoms: _520  and  _521
REMARK  215  A    between atoms: _526  and  _528
REMARK  216  A    between atoms: _528  and  _529
REMARK  217  A    between atoms: _528  and  _531
REMARK  218  A    between atoms: _531  and  _532
REMARK  219  A    between atoms: _532  and  _533
REMARK  220  A    between atoms: _533  and  _534
REMARK  221  A    between atoms: _534  and  _535
REMARK  222  A    between atoms: _539  and  _541
REMARK  223  A    between atoms: _541  and  _542
REMARK  224  A    between atoms: _541  and  _544
REMARK  225  A    between atoms: _544  and  _545
REMARK  226  A    between atoms: _555  and  _557
REMARK  227  A    between atoms: _557  and  _558
REMARK  228  A    between atoms: _561  and  _563
REMARK  229  A    between atoms: _563  and  _564
REMARK  230  A    between atoms: _566  and  _568
REMARK  231  A    between atoms: _568  and  _569
REMARK  232  A    between atoms: _568  and  _571
REMARK  233  A    between atoms: _571  and  _572
REMARK  234  A    between atoms: _572  and  _573
REMARK  235  A    between atoms: _576  and  _578
REMARK  236  A    between atoms: _578  and  _579
REMARK  237  A    between atoms: _578  and  _581
REMARK  238  A    between atoms: _581  and  _582
REMARK  239  A    between atoms: _582  and  _583
REMARK  240  A    between atoms: _583  and  _584
REMARK  241  A    between atoms: _593  and  _595
REMARK  242  A    between atoms: _595  and  _596
REMARK  243  A    between atoms: _595  and  _598
REMARK  244  A    between atoms: _598  and  _599
REMARK  245  A    between atoms: _602  and  _604
REMARK  246  A    between atoms: _604  and  _605
REMARK  247  A    between atoms: _604  and  _607
REMARK  248  A    between atoms: _607  and  _608
REMARK  249  A    between atoms: _613  and  _614
REMARK  250  A    between atoms: _616  and  _618
REMARK  251  A    between atoms: _618  and  _619
REMARK  252  A    between atoms: _618  and  _621
REMARK  253  A    between atoms: _621  and  _622
REMARK  254  A    between atoms: _625  and  _627
REMARK  255  A    between atoms: _627  and  _628
REMARK  256  A    between atoms: _627  and  _630
REMARK  257  A    between atoms: _630  and  _631
REMARK  258  A    between atoms: _634  and  _636
REMARK  259  A    between atoms: _636  and  _637
REMARK  260  A    between atoms: _636  and  _639
REMARK  261  A    between atoms: _639  and  _640
REMARK  262  A    between atoms: _641  and  _643
REMARK  263  A    between atoms: _643  and  _644
REMARK  264  A    between atoms: _643  and  _646
REMARK  265  A    between atoms: _649  and  _651
REMARK  266  A    between atoms: _651  and  _652
REMARK  267  A    between atoms: _651  and  _654
REMARK  268  A    between atoms: _654  and  _655
REMARK  269  A    between atoms: _655  and  _656
REMARK  270  A    between atoms: _659  and  _661
REMARK  271  A    between atoms: _661  and  _662
REMARK  272  A    between atoms: _661  and  _664
REMARK  273  A    between atoms: _664  and  _665
REMARK  274  A    between atoms: _675  and  _677
REMARK  275  A    between atoms: _677  and  _678
REMARK  276  A    between atoms: _677  and  _680
REMARK  277  A    between atoms: _680  and  _681
REMARK  278  A    between atoms: _684  and  _686
REMARK  279  A    between atoms: _686  and  _687
REMARK  280  A    between atoms: _686  and  _689
REMARK  281  A    between atoms: _689  and  _690
REMARK  282  A    between atoms: _695  and  _696
REMARK                            x       y       z     vdW  Elec       q    Type
REMARK                         _______ _______ _______ _____ _____    ______ ____
ROOT
ATOM      1  CA  PHE A   6      34.778  56.053  -6.884  0.00  0.00    +0.153 C 
ENDROOT
BRANCH   1   3
ATOM      2  C   SER A   5      34.858  58.459  -7.062  0.00  0.00    +0.243 C 
ATOM      3  N   PHE A   6      34.993  57.374  -6.304  0.00  0.00    -0.297 N 
ATOM      4  H   PHE A   6      35.251  57.467  -5.301  0.00  0.00    +0.150 HD
ATOM      5  O   SER A   5      34.553  58.395  -8.252  0.00  0.00    -0.273 OA
BRANCH   2   6
ATOM      6  CA  SER A   5      35.097  59.810  -6.391  0.00  0.00    +0.178 C 
BRANCH   6   8
ATOM      7  C   GLN A   4      33.138  59.714  -4.966  0.00  0.00    +0.241 C 
ATOM      8  N   SER A   5      34.455  59.842  -5.084  0.00  0.00    -0.295 N 
ATOM      9  H   SER A   5      35.036  59.967  -4.231  0.00  0.00    +0.150 HD
ATOM     10  O   GLN A   4      32.389  59.580  -5.934  0.00  0.00    -0.273 OA
BRANCH   7  11
ATOM     11  CA  GLN A   4      32.579  59.743  -3.551  0.00  0.00    +0.149 C 
BRANCH  11  13
ATOM     12  C   GLU A   3      33.651  57.714  -2.762  0.00  0.00    +0.241 C 
ATOM     13  N   GLN A   4      33.441  59.021  -2.621  0.00  0.00    -0.297 N 
ATOM     14  H   GLN A   4      33.897  59.533  -1.839  0.00  0.00    +0.150 HD
ATOM     15  O   GLU A   3      33.157  57.063  -3.675  0.00  0.00    -0.273 OA
BRANCH  12  16
ATOM     16  CA  GLU A   3      34.567  57.049  -1.734  0.00  0.00    +0.149 C 
BRANCH  16  18
ATOM     17  C   ASN A   2      36.540  58.186  -2.569  0.00  0.00    +0.241 C 
ATOM     18  N   GLU A   3      35.752  57.870  -1.546  0.00  0.00    -0.297 N 
ATOM     19  H   GLU A   3      35.987  58.216  -0.594  0.00  0.00    +0.150 HD
ATOM     20  O   ASN A   2      36.324  57.802  -3.718  0.00  0.00    -0.273 OA
BRANCH  17  21
ATOM     21  CA  ASN A   2      37.740  59.071  -2.253  0.00  0.00    +0.158 C 
BRANCH  21  23
ATOM     22  C   GLY A   1      36.482  61.037  -1.602  0.00  0.00    +0.240 C 
ATOM     23  N   ASN A   2      37.360  60.091  -1.287  0.00  0.00    -0.297 N 
ATOM     24  H   ASN A   2      37.782  60.079  -0.336  0.00  0.00    +0.150 HD
ATOM     25  O   GLY A   1      35.958  61.116  -2.718  0.00  0.00    -0.274 OA
BRANCH  22  26
ATOM     26  CA  GLY A   1      36.147  62.031  -0.504  0.00  0.00    +0.169 C 
BRANCH  26  27
ATOM     27  N   GLY A   1      36.017  61.320   0.756  0.00  0.00    -0.236 NA
ATOM     28  H   GLY A   1      36.732  61.454   1.500  0.00  0.00    +0.142 HD
ENDBRANCH  26  27
ENDBRANCH  22  26
ENDBRANCH  21  23
BRANCH  21  29
ATOM     29  CB  ASN A   2      38.894  58.222  -1.717  0.00  0.00    +0.114 C 
BRANCH  29  30
ATOM     30  CG  ASN A   2      40.197  58.991  -1.658  0.00  0.00    +0.222 C 
ATOM     31  ND2 ASN A   2      41.080  58.601  -0.746  0.00  0.00    -0.329 N 
ATOM     32 HD21 ASN A   2      40.854  57.812  -0.108  0.00  0.00    +0.145 HD
ATOM     33 HD22 ASN A   2      41.998  59.085  -0.670  0.00  0.00    +0.145 HD
ATOM     34  OD1 ASN A   2      40.414  59.918  -2.437  0.00  0.00    -0.275 OA
ENDBRANCH  29  30
ENDBRANCH  21  29
ENDBRANCH  17  21
ENDBRANCH  16  18
BRANCH  16  35
ATOM     35  CB  GLU A   3      33.825  56.877  -0.404  0.00  0.00    +0.041 C 
BRANCH  35  36
ATOM     36  CG  GLU A   3      32.491  56.180  -0.525  0.00  0.00    +0.116 C 
BRANCH  36  37
ATOM     37  CD  GLU A   3      31.790  56.022   0.815  0.00  0.00    +0.365 C 
ATOM     38  OE2 GLU A   3      32.186  56.704   1.783  0.00  0.00    -0.246 OA
ATOM     39  OE1 GLU A   3      30.834  55.223   0.896  0.00  0.00    -0.246 OA
ENDBRANCH  36  37
ENDBRANCH  35  36
ENDBRANCH  16  35
ENDBRANCH  12  16
ENDBRANCH  11  13
BRANCH  11  40
ATOM     40  CB  GLN A   4      32.391  61.189  -3.086  0.00  0.00    +0.039 C 
BRANCH  40  41
ATOM     41  CG  GLN A   4      31.675  61.296  -1.746  0.00  0.00    +0.087 C 
BRANCH  41  42
ATOM     42  CD  GLN A   4      30.280  60.695  -1.775  0.00  0.00    +0.219 C 
ATOM     43  OE1 GLN A   4      29.709  60.379  -0.732  0.00  0.00    -0.275 OA
ATOM     44  NE2 GLN A   4      29.719  60.544  -2.971  0.00  0.00    -0.329 N 
ATOM     45 HE21 GLN A   4      28.762  60.145  -3.050  0.00  0.00    +0.145 HD
ATOM     46 HE22 GLN A   4      30.238  60.824  -3.828  0.00  0.00    +0.145 HD
ENDBRANCH  41  42
ENDBRANCH  40  41
ENDBRANCH  11  40
ENDBRANCH   7  11
ENDBRANCH   6   8
BRANCH   6  47
ATOM     47  CB  SER A   5      36.599  60.059  -6.250  0.00  0.00    +0.166 C 
BRANCH  47  48
ATOM     48  OG  SER A   5      37.222  60.031  -7.519  0.00  0.00    -0.380 OA
ATOM     49  H   SER A   5      38.193  60.193  -7.412  0.00  0.00    +0.211 HD
ENDBRANCH  47  48
ENDBRANCH   6  47
ENDBRANCH   2   6
ENDBRANCH   1   3
BRANCH   1  50
ATOM     50  C   PHE A   6      33.324  55.787  -7.246  0.00  0.00    +0.241 C 
ATOM     51  N   ARG A   7      32.397  56.414  -6.528  0.00  0.00    -0.297 N 
ATOM     52  H   ARG A   7      32.682  57.026  -5.737  0.00  0.00    +0.150 HD
ATOM     53  O   PHE A   6      33.042  55.023  -8.171  0.00  0.00    -0.273 OA
BRANCH  51  54
ATOM     54  CA  ARG A   7      30.984  56.249  -6.843  0.00  0.00    +0.149 C 
BRANCH  54  55
ATOM     55  C   ARG A   7      30.794  56.792  -8.253  0.00  0.00    +0.241 C 
ATOM     56  N   VAL A   8      31.463  57.907  -8.538  0.00  0.00    -0.297 N 
ATOM     57  H   VAL A   8      32.055  58.347  -7.805  0.00  0.00    +0.150 HD
ATOM     58  O   ARG A   7      30.066  56.222  -9.061  0.00  0.00    -0.273 OA
BRANCH  56  59
ATOM     59  CA  VAL A   8      31.383  58.522  -9.852  0.00  0.00    +0.149 C 
BRANCH  59  60
ATOM     60  C   VAL A   8      32.027  57.616 -10.902  0.00  0.00    +0.241 C 
ATOM     61  N   ASP A   9      33.198  57.060 -10.588  0.00  0.00    -0.297 N 
ATOM     62  H   ASP A   9      33.624  57.261  -9.661  0.00  0.00    +0.150 HD
ATOM     63  O   VAL A   8      31.463  57.418 -11.974  0.00  0.00    -0.273 OA
BRANCH  61  64
ATOM     64  CA  ASP A   9      33.898  56.172 -11.520  0.00  0.00    +0.160 C 
BRANCH  64  65
ATOM     65  C   ASP A   9      33.063  54.960 -11.921  0.00  0.00    +0.241 C 
ATOM     66  N   LEU A  10      32.374  54.357 -10.959  0.00  0.00    -0.298 N 
ATOM     67  H   LEU A  10      32.427  54.712  -9.983  0.00  0.00    +0.150 HD
ATOM     68  O   ASP A   9      33.060  54.558 -13.087  0.00  0.00    -0.273 OA
BRANCH  66  69
ATOM     69  CA  LEU A  10      31.543  53.197 -11.267  0.00  0.00    +0.137 C 
BRANCH  69  70
ATOM     70  C   LEU A  10      30.483  53.571 -12.299  0.00  0.00    +0.227 C 
ATOM     71  O   LEU A  10      30.184  52.793 -13.199  0.00  0.00    -0.286 OA
ENDBRANCH  69  70
BRANCH  69  72
ATOM     72  CB  LEU A  10      30.888  52.654  -9.992  0.00  0.00    +0.028 C 
BRANCH  72  73
ATOM     73  CG  LEU A  10      31.886  51.958  -9.058  0.00  0.00    +0.002 C 
ATOM     74  CD2 LEU A  10      31.294  51.801  -7.666  0.00  0.00    +0.000 C 
ATOM     75  CD1 LEU A  10      32.267  50.601  -9.643  0.00  0.00    +0.000 C 
ENDBRANCH  72  73
ENDBRANCH  69  72
ENDBRANCH  66  69
ENDBRANCH  64  65
BRANCH  64  76
ATOM     76  CB  ASP A   9      35.218  55.671 -10.922  0.00  0.00    +0.143 C 
BRANCH  76  77
ATOM     77  CG  ASP A   9      36.252  56.767 -10.773  0.00  0.00    +0.367 C 
ATOM     78  OD2 ASP A   9      37.226  56.556 -10.021  0.00  0.00    -0.246 OA
ATOM     79  OD1 ASP A   9      36.107  57.832 -11.412  0.00  0.00    -0.246 OA
ENDBRANCH  76  77
ENDBRANCH  64  76
ENDBRANCH  61  64
ENDBRANCH  59  60
BRANCH  59  80
ATOM     80  CB  VAL A   8      32.077  59.907  -9.863  0.00  0.00    +0.027 C 
ATOM     81  CG2 VAL A   8      31.349  60.853  -8.921  0.00  0.00    +0.002 C 
ATOM     82  CG1 VAL A   8      32.088  60.480 -11.275  0.00  0.00    +0.002 C 
ENDBRANCH  59  80
ENDBRANCH  56  59
ENDBRANCH  54  55
BRANCH  54  83
ATOM     83  CB  ARG A   7      30.107  57.047  -5.879  0.00  0.00    +0.033 C 
BRANCH  83  84
ATOM     84  CG  ARG A   7      30.050  56.510  -4.463  0.00  0.00    +0.045 C 
BRANCH  84  85
ATOM     85  CD  ARG A   7      28.984  57.254  -3.672  0.00  0.00    +0.174 C 
BRANCH  85  86
ATOM     86  NE  ARG A   7      28.877  56.782  -2.294  0.00  0.00    -0.265 N 
ATOM     87  CZ  ARG A   7      28.037  57.287  -1.398  0.00  0.00    +0.342 C 
ATOM     88  NH2 ARG A   7      28.009  56.801  -0.166  0.00  0.00    -0.292 N 
ATOM     89 HH21 ARG A   7      27.351  57.198   0.535  0.00  0.00    +0.255 HD
ATOM     90 HH22 ARG A   7      28.645  56.023   0.101  0.00  0.00    +0.255 HD
ATOM     91  NH1 ARG A   7      27.224  58.283  -1.734  0.00  0.00    -0.292 N 
ATOM     92 HH11 ARG A   7      26.567  58.677  -1.031  0.00  0.00    +0.255 HD
ATOM     93 HH12 ARG A   7      27.245  58.668  -2.700  0.00  0.00    +0.255 HD
ATOM     94  HE  ARG A   7      29.497  56.002  -1.996  0.00  0.00    +0.259 HD
ENDBRANCH  85  86
ENDBRANCH  84  85
ENDBRANCH  83  84
ENDBRANCH  54  83
ENDBRANCH  51  54
ENDBRANCH   1  50
BRANCH   1  95
ATOM     95  CB  PHE A   6      35.324  54.968  -5.952  0.00  0.00    +0.055 C 
BRANCH  95  96
ATOM     96  CG  PHE A   6      36.817  54.828  -6.025  0.00  0.00    -0.020 A 
ATOM     97  CD2 PHE A   6      37.628  55.296  -4.999  0.00  0.00    -0.004 A 
ATOM     98  CE2 PHE A   6      39.015  55.227  -5.095  0.00  0.00    -0.000 A 
ATOM     99  CZ  PHE A   6      39.605  54.681  -6.233  0.00  0.00    -0.000 A 
ATOM    100  CE1 PHE A   6      38.802  54.206  -7.266  0.00  0.00    -0.000 A 
ATOM    101  CD1 PHE A   6      37.416  54.281  -7.156  0.00  0.00    -0.004 A 
ENDBRANCH  95  96
ENDBRANCH   1  95
TORSDOF 41
REMARK  Name = ../refined-set-2016/1g7q/1g7q_pocket.pdb
REMARK  282 active torsions:
REMARK  status: ('A' for Active; 'I' for Inactive)
REMARK    1  A    between atoms: _1  and  _3
REMARK    2  A    between atoms: _3  and  _4
REMARK    3  A    between atoms: _3  and  _6
REMARK    4  A    between atoms: _6  and  _7
REMARK    5  A    between atoms: _10  and  _12
REMARK    6  A    between atoms: _12  and  _13
REMARK    7  A    between atoms: _12  and  _15
REMARK    8  A    between atoms: _15  and  _16
REMARK    9  A    between atoms: _16  and  _17
REMARK   10  A    between atoms: _17  and  _18
REMARK   11  A    between atoms: _27  and  _29
REMARK   12  A    between atoms: _29  and  _30
REMARK   13  A    between atoms: _29  and  _32
REMARK   14  A    between atoms: _32  and  _33
REMARK   15  A    between atoms: _38  and  _39
REMARK   16  A    between atoms: _41  and  _43
REMARK   17  A    between atoms: _43  and  _44
REMARK   18  A    between atoms: _43  and  _46
REMARK   19  A    between atoms: _46  and  _47
REMARK   20  A    between atoms: _53  and  _55
REMARK   21  A    between atoms: _55  and  _56
REMARK   22  A    between atoms: _55  and  _58
REMARK   23  A    between atoms: _61  and  _63
REMARK   24  A    between atoms: _63  and  _64
REMARK   25  A    between atoms: _63  and  _66
REMARK   26  A    between atoms: _66  and  _67
REMARK   27  A    between atoms: _72  and  _73
REMARK   28  A    between atoms: _75  and  _77
REMARK   29  A    between atoms: _77  and  _78
REMARK   30  A    between atoms: _77  and  _80
REMARK   31  A    between atoms: _80  and  _81
REMARK   32  A    between atoms: _81  and  _82
REMARK   33  A    between atoms: _85  and  _87
REMARK   34  A    between atoms: _87  and  _88
REMARK   35  A    between atoms: _87  and  _90
REMARK   36  A    between atoms: _93  and  _95
REMARK   37  A    between atoms: _95  and  _96
REMARK   38  A    between atoms: _98  and  _100
REMARK   39  A    between atoms: _100  and  _101
REMARK   40  A    between atoms: _100  and  _103
REMARK   41  A    between atoms: _106  and  _108
REMARK   42  A    between atoms: _108  and  _109
REMARK   43  A    between atoms: _108  and  _111
REMARK   44  A    between atoms: _111  and  _112
REMARK   45  A    between atoms: _118  and  _120
REMARK   46  A    between atoms: _120  and  _121
REMARK   47  A    between atoms: _120  and  _123
REMARK   48  A    between atoms: _126  and  _128
REMARK   49  A    between atoms: _128  and  _129
REMARK   50  A    between atoms: _128  and  _131
REMARK   51  A    between atoms: _131  and  _132
REMARK   52  A    between atoms: _137  and  _138
REMARK   53  A    between atoms: _140  and  _142
REMARK   54  A    between atoms: _142  and  _143
REMARK   55  A    between atoms: _142  and  _145
REMARK   56  A    between atoms: _145  and  _146
REMARK   57  A    between atoms: _146  and  _147
REMARK   58  A    between atoms: _149  and  _151
REMARK   59  A    between atoms: _151  and  _152
REMARK   60  A    between atoms: _151  and  _154
REMARK   61  A    between atoms: _154  and  _155
REMARK   62  A    between atoms: _160  and  _161
REMARK   63  A    between atoms: _163  and  _165
REMARK   64  A    between atoms: _165  and  _166
REMARK   65  A    between atoms: _165  and  _168
REMARK   66  A    between atoms: _168  and  _169
REMARK   67  A    between atoms: _169  and  _170
REMARK   68  A    between atoms: _170  and  _171
REMARK   69  A    between atoms: _180  and  _182
REMARK   70  A    between atoms: _182  and  _183
REMARK   71  A    between atoms: _182  and  _185
REMARK   72  A    between atoms: _185  and  _186
REMARK   73  A    between atoms: _186  and  _187
REMARK   74  A    between atoms: _190  and  _192
REMARK   75  A    between atoms: _192  and  _193
REMARK   76  A    between atoms: _192  and  _195
REMARK   77  A    between atoms: _195  and  _196
REMARK   78  A    between atoms: _196  and  _197
REMARK   79  A    between atoms: _202  and  _204
REMARK   80  A    between atoms: _204  and  _205
REMARK   81  A    between atoms: _204  and  _207
REMARK   82  A    between atoms: _207  and  _208
REMARK   83  A    between atoms: _208  and  _209
REMARK   84  A    between atoms: _209  and  _210
REMARK   85  A    between atoms: _210  and  _211
REMARK   86  A    between atoms: _215  and  _217
REMARK   87  A    between atoms: _217  and  _218
REMARK   88  A    between atoms: _221  and  _223
REMARK   89  A    between atoms: _223  and  _224
REMARK   90  A    between atoms: _226  and  _228
REMARK   91  A    between atoms: _228  and  _229
REMARK   92  A    between atoms: _228  and  _231
REMARK   93  A    between atoms: _231  and  _232
REMARK   94  A    between atoms: _237  and  _239
REMARK   95  A    between atoms: _239  and  _240
REMARK   96  A    between atoms: _239  and  _242
REMARK   97  A    between atoms: _242  and  _243
REMARK   98  A    between atoms: _243  and  _244
REMARK   99  A    between atoms: _247  and  _249
REMARK  100  A    between atoms: _249  and  _250
REMARK  101  A    between atoms: _249  and  _252
REMARK  102  A    between atoms: _252  and  _253
REMARK  103  A    between atoms: _253  and  _254
REMARK  104  A    between atoms: _259  and  _261
REMARK  105  A    between atoms: _261  and  _262
REMARK  106  A    between atoms: _261  and  _264
REMARK  107  A    between atoms: _264  and  _265
REMARK  108  A    between atoms: _267  and  _269
REMARK  109  A    between atoms: _269  and  _270
REMARK  110  A    between atoms: _269  and  _272
REMARK  111  A    between atoms: _272  and  _273
REMARK  112  A    between atoms: _279  and  _281
REMARK  113  A    between atoms: _281  and  _282
REMARK  114  A    between atoms: _281  and  _284
REMARK  115  A    between atoms: _284  and  _285
REMARK  116  A    between atoms: _285  and  _286
REMARK  117  A    between atoms: _286  and  _287
REMARK  118  A    between atoms: _296  and  _298
REMARK  119  A    between atoms: _298  and  _299
REMARK  120  A    between atoms: _298  and  _301
REMARK  121  A    between atoms: _304  and  _306
REMARK  122  A    between atoms: _306  and  _307
REMARK  123  A    between atoms: _306  and  _309
REMARK  124  A    between atoms: _309  and  _310
REMARK  125  A    between atoms: _313  and  _315
REMARK  126  A    between atoms: _315  and  _316
REMARK  127  A    between atoms: _315  and  _318
REMARK  128  A    between atoms: _318  and  _319
REMARK  129  A    between atoms: _322  and  _324
REMARK  130  A    between atoms: _324  and  _325
REMARK  131  A    between atoms: _324  and  _327
REMARK  132  A    between atoms: _327  and  _328
REMARK  133  A    between atoms: _331  and  _333
REMARK  134  A    between atoms: _333  and  _334
REMARK  135  A    between atoms: _333  and  _336
REMARK  136  A    between atoms: _336  and  _337
REMARK  137  A    between atoms: _340  and  _342
REMARK  138  A    between atoms: _342  and  _343
REMARK  139  A    between atoms: _342  and  _345
REMARK  140  A    between atoms: _345  and  _346
REMARK  141  A    between atoms: _351  and  _352
REMARK  142  A    between atoms: _354  and  _356
REMARK  143  A    between atoms: _356  and  _357
REMARK  144  A    between atoms: _356  and  _359
REMARK  145  A    between atoms: _359  and  _360
REMARK  146  A    between atoms: _363  and  _365
REMARK  147  A    between atoms: _365  and  _366
REMARK  148  A    between atoms: _365  and  _368
REMARK  149  A    between atoms: _371  and  _373
REMARK  150  A    between atoms: _373  and  _374
REMARK  151  A    between atoms: _373  and  _376
REMARK  152  A    between atoms: _376  and  _377
REMARK  153  A    between atoms: _380  and  _382
REMARK  154  A    between atoms: _382  and  _383
REMARK  155  A    between atoms: _382  and  _385
REMARK  156  A    between atoms: _385  and  _386
REMARK  157  A    between atoms: _388  and  _390
REMARK  158  A    between atoms: _390  and  _391
REMARK  159  A    between atoms: _393  and  _395
REMARK  160  A    between atoms: _395  and  _396
REMARK  161  A    between atoms: _395  and  _398
REMARK  162  A    between atoms: _398  and  _399
REMARK  163  A    between atoms: _399  and  _640
REMARK  164  A    between atoms: _400  and  _402
REMARK  165  A    between atoms: _402  and  _403
REMARK  166  A    between atoms: _402  and  _405
REMARK  167  A    between atoms: _405  and  _406
REMARK  168  A    between atoms: _411  and  _412
REMARK  169  A    between atoms: _414  and  _416
REMARK  170  A    between atoms: _416  and  _417
REMARK  171  A    between atoms: _416  and  _419
REMARK  172  A    between atoms: _419  and  _420
REMARK  173  A    between atoms: _420  and  _421
REMARK  174  A    between atoms: _426  and  _428
REMARK  175  A    between atoms: _428  and  _429
REMARK  176  A    between atoms: _428  and  _431
REMARK  177  A    between atoms: _431  and  _432
REMARK  178  A    between atoms: _437  and  _438
REMARK  179  A    between atoms: _440  and  _442
REMARK  180  A    between atoms: _442  and  _443
REMARK  181  A    between atoms: _442  and  _445
REMARK  182  A    between atoms: _445  and  _446
REMARK  183  A    between atoms: _451  and  _452
REMARK  184  A    between atoms: _454  and  _456
REMARK  185  A    between atoms: _456  and  _457
REMARK  186  A    between atoms: _456  and  _459
REMARK  187  A    between atoms: _459  and  _460
REMARK  188  A    between atoms: _463  and  _465
REMARK  189  A    between atoms: _465  and  _466
REMARK  190  A    between atoms: _469  and  _471
REMARK  191  A    between atoms: _471  and  _472
REMARK  192  A    between atoms: _475  and  _477
REMARK  193  A    between atoms: _477  and  _478
REMARK  194  A    between atoms: _477  and  _480
REMARK  195  A    between atoms: _480  and  _481
REMARK  196  A    between atoms: _484  and  _486
REMARK  197  A    between atoms: _486  and  _487
REMARK  198  A    between atoms: _486  and  _489
REMARK  199  A    between atoms: _489  and  _490
REMARK  200  A    between atoms: _493  and  _495
REMARK  201  A    between atoms: _495  and  _496
REMARK  202  A    between atoms: _495  and  _498
REMARK  203  A    between atoms: _498  and  _499
REMARK  204  A    between atoms: _502  and  _504
REMARK  205  A    between atoms: _504  and  _505
REMARK  206  A    between atoms: _504  and  _507
REMARK  207  A    between atoms: _507  and  _508
REMARK  208  A    between atoms: _508  and  _509
REMARK  209  A    between atoms: _509  and  _510
REMARK  210  A    between atoms: _510  and  _511
REMARK  211  A    between atoms: _515  and  _517
REMARK  212  A    between atoms: _517  and  _518
REMARK  213  A    between atoms: _517  and  _520
REMARK  214  A    between atoms: _520  and  _521
REMARK  215  A    between atoms: _526  and  _528
REMARK  216  A    between atoms: _528  and  _529
REMARK  217  A    between atoms: _528  and  _531
REMARK  218  A    between atoms: _531  and  _532
REMARK  219  A    between atoms: _532  and  _533
REMARK  220  A    between atoms: _533  and  _534
REMARK  221  A    between atoms: _534  and  _535
REMARK  222  A    between atoms: _539  and  _541
REMARK  223  A    between atoms: _541  and  _542
REMARK  224  A    between atoms: _541  and  _544
REMARK  225  A    between atoms: _544  and  _545
REMARK  226  A    between atoms: _555  and  _557
REMARK  227  A    between atoms: _557  and  _558
REMARK  228  A    between atoms: _561  and  _563
REMARK  229  A    between atoms: _563  and  _564
REMARK  230  A    between atoms: _566  and  _568
REMARK  231  A    between atoms: _568  and  _569
REMARK  232  A    between atoms: _568  and  _571
REMARK  233  A    between atoms: _571  and  _572
REMARK  234  A    between atoms: _572  and  _573
REMARK  235  A    between atoms: _576  and  _578
REMARK  236  A    between atoms: _578  and  _579
REMARK  237  A    between atoms: _578  and  _581
REMARK  238  A    between atoms: _581  and  _582
REMARK  239  A    between atoms: _582  and  _583
REMARK  240  A    between atoms: _583  and  _584
REMARK  241  A    between atoms: _593  and  _595
REMARK  242  A    between atoms: _595  and  _596
REMARK  243  A    between atoms: _595  and  _598
REMARK  244  A    between atoms: _598  and  _599
REMARK  245  A    between atoms: _602  and  _604
REMARK  246  A    between atoms: _604  and  _605
REMARK  247  A    between atoms: _604  and  _607
REMARK  248  A    between atoms: _607  and  _608
REMARK  249  A    between atoms: _613  and  _614
REMARK  250  A    between atoms: _616  and  _618
REMARK  251  A    between atoms: _618  and  _619
REMARK  252  A    between atoms: _618  and  _621
REMARK  253  A    between atoms: _621  and  _622
REMARK  254  A    between atoms: _625  and  _627
REMARK  255  A    between atoms: _627  and  _628
REMARK  256  A    between atoms: _627  and  _630
REMARK  257  A    between atoms: _630  and  _631
REMARK  258  A    between atoms: _634  and  _636
REMARK  259  A    between atoms: _636  and  _637
REMARK  260  A    between atoms: _636  and  _639
REMARK  261  A    between atoms: _639  and  _640
REMARK  262  A    between atoms: _641  and  _643
REMARK  263  A    between atoms: _643  and  _644
REMARK  264  A    between atoms: _643  and  _646
REMARK  265  A    between atoms: _649  and  _651
REMARK  266  A    between atoms: _651  and  _652
REMARK  267  A    between atoms: _651  and  _654
REMARK  268  A    between atoms: _654  and  _655
REMARK  269  A    between atoms: _655  and  _656
REMARK  270  A    between atoms: _659  and  _661
REMARK  271  A    between atoms: _661  and  _662
REMARK  272  A    between atoms: _661  and  _664
REMARK  273  A    between atoms: _664  and  _665
REMARK  274  A    between atoms: _675  and  _677
REMARK  275  A    between atoms: _677  and  _678
REMARK  276  A    between atoms: _677  and  _680
REMARK  277  A    between atoms: _680  and  _681
REMARK  278  A    between atoms: _684  and  _686
REMARK  279  A    between atoms: _686  and  _687
REMARK  280  A    between atoms: _686  and  _689
REMARK  281  A    between atoms: _689  and  _690
REMARK  282  A    between atoms: _695  and  _696
REMARK                            x       y       z     vdW  Elec       q    Type
REMARK                         _______ _______ _______ _____ _____    ______ ____
ROOT
ATOM      1  C   THR A   1      31.847  55.345 -16.456  0.00  0.00    +0.241 C 
ATOM      2  N   LEU A   2      32.405  54.328 -15.804  0.00  0.00    -0.298 N 
ATOM      3  H   LEU A   2      32.546  54.389 -14.775  0.00  0.00    +0.150 HD
ATOM      4  O   THR A   1      31.641  55.319 -17.668  0.00  0.00    -0.274 OA
ENDROOT
BRANCH   1   5
ATOM      5  CA  THR A   1      31.447  56.570 -15.636  0.00  0.00    +0.172 C 
BRANCH   5   6
ATOM      6  N   THR A   1      30.725  56.222 -14.421  0.00  0.00    -0.236 NA
ATOM      7  H   THR A   1      31.114  56.509 -13.500  0.00  0.00    +0.142 HD
ENDBRANCH   5   6
BRANCH   5   8
ATOM      8  CB  THR A   1      32.708  57.390 -15.307  0.00  0.00    +0.135 C 
ATOM      9  CG2 THR A   1      33.442  57.778 -16.585  0.00  0.00    +0.034 C 
BRANCH   8  10
ATOM     10  OG1 THR A   1      32.329  58.581 -14.607  0.00  0.00    -0.383 OA
ATOM     11  HG1 THR A   1      33.139  59.109 -14.395  0.00  0.00    +0.210 HD
ENDBRANCH   8  10
ENDBRANCH   5   8
ENDBRANCH   1   5
BRANCH   2  12
ATOM     12  CA  LEU A   2      32.821  53.127 -16.522  0.00  0.00    +0.137 C 
BRANCH  12  13
ATOM     13  C   LEU A   2      31.654  52.361 -17.146  0.00  0.00    +0.227 C 
ATOM     14  O   LEU A   2      31.833  51.661 -18.145  0.00  0.00    -0.286 OA
ENDBRANCH  12  13
BRANCH  12  15
ATOM     15  CB  LEU A   2      33.641  52.208 -15.607  0.00  0.00    +0.028 C 
BRANCH  15  16
ATOM     16  CG  LEU A   2      35.091  52.667 -15.403  0.00  0.00    +0.002 C 
ATOM     17  CD2 LEU A   2      35.855  51.683 -14.527  0.00  0.00    +0.000 C 
ATOM     18  CD1 LEU A   2      35.768  52.772 -16.748  0.00  0.00    +0.000 C 
ENDBRANCH  15  16
ENDBRANCH  12  15
ENDBRANCH   2  12
TORSDOF 8
REMARK  Name = ../refined-set-2016/1g7q/1g7q_pocket.pdb
REMARK  282 active torsions:
REMARK  status: ('A' for Active; 'I' for Inactive)
REMARK    1  A    between atoms: _1  and  _3
REMARK    2  A    between atoms: _3  and  _4
REMARK    3  A    between atoms: _3  and  _6
REMARK    4  A    between atoms: _6  and  _7
REMARK    5  A    between atoms: _10  and  _12
REMARK    6  A    between atoms: _12  and  _13
REMARK    7  A    between atoms: _12  and  _15
REMARK    8  A    between atoms: _15  and  _16
REMARK    9  A    between atoms: _16  and  _17
REMARK   10  A    between atoms: _17  and  _18
REMARK   11  A    between atoms: _27  and  _29
REMARK   12  A    between atoms: _29  and  _30
REMARK   13  A    between atoms: _29  and  _32
REMARK   14  A    between atoms: _32  and  _33
REMARK   15  A    between atoms: _38  and  _39
REMARK   16  A    between atoms: _41  and  _43
REMARK   17  A    between atoms: _43  and  _44
REMARK   18  A    between atoms: _43  and  _46
REMARK   19  A    between atoms: _46  and  _47
REMARK   20  A    between atoms: _53  and  _55
REMARK   21  A    between atoms: _55  and  _56
REMARK   22  A    between atoms: _55  and  _58
REMARK   23  A    between atoms: _61  and  _63
REMARK   24  A    between atoms: _63  and  _64
REMARK   25  A    between atoms: _63  and  _66
REMARK   26  A    between atoms: _66  and  _67
REMARK   27  A    between atoms: _72  and  _73
REMARK   28  A    between atoms: _75  and  _77
REMARK   29  A    between atoms: _77  and  _78
REMARK   30  A    between atoms: _77  and  _80
REMARK   31  A    between atoms: _80  and  _81
REMARK   32  A    between atoms: _81  and  _82
REMARK   33  A    between atoms: _85  and  _87
REMARK   34  A    between atoms: _87  and  _88
REMARK   35  A    between atoms: _87  and  _90
REMARK   36  A    between atoms: _93  and  _95
REMARK   37  A    between atoms: _95  and  _96
REMARK   38  A    between atoms: _98  and  _100
REMARK   39  A    between atoms: _100  and  _101
REMARK   40  A    between atoms: _100  and  _103
REMARK   41  A    between atoms: _106  and  _108
REMARK   42  A    between atoms: _108  and  _109
REMARK   43  A    between atoms: _108  and  _111
REMARK   44  A    between atoms: _111  and  _112
REMARK   45  A    between atoms: _118  and  _120
REMARK   46  A    between atoms: _120  and  _121
REMARK   47  A    between atoms: _120  and  _123
REMARK   48  A    between atoms: _126  and  _128
REMARK   49  A    between atoms: _128  and  _129
REMARK   50  A    between atoms: _128  and  _131
REMARK   51  A    between atoms: _131  and  _132
REMARK   52  A    between atoms: _137  and  _138
REMARK   53  A    between atoms: _140  and  _142
REMARK   54  A    between atoms: _142  and  _143
REMARK   55  A    between atoms: _142  and  _145
REMARK   56  A    between atoms: _145  and  _146
REMARK   57  A    between atoms: _146  and  _147
REMARK   58  A    between atoms: _149  and  _151
REMARK   59  A    between atoms: _151  and  _152
REMARK   60  A    between atoms: _151  and  _154
REMARK   61  A    between atoms: _154  and  _155
REMARK   62  A    between atoms: _160  and  _161
REMARK   63  A    between atoms: _163  and  _165
REMARK   64  A    between atoms: _165  and  _166
REMARK   65  A    between atoms: _165  and  _168
REMARK   66  A    between atoms: _168  and  _169
REMARK   67  A    between atoms: _169  and  _170
REMARK   68  A    between atoms: _170  and  _171
REMARK   69  A    between atoms: _180  and  _182
REMARK   70  A    between atoms: _182  and  _183
REMARK   71  A    between atoms: _182  and  _185
REMARK   72  A    between atoms: _185  and  _186
REMARK   73  A    between atoms: _186  and  _187
REMARK   74  A    between atoms: _190  and  _192
REMARK   75  A    between atoms: _192  and  _193
REMARK   76  A    between atoms: _192  and  _195
REMARK   77  A    between atoms: _195  and  _196
REMARK   78  A    between atoms: _196  and  _197
REMARK   79  A    between atoms: _202  and  _204
REMARK   80  A    between atoms: _204  and  _205
REMARK   81  A    between atoms: _204  and  _207
REMARK   82  A    between atoms: _207  and  _208
REMARK   83  A    between atoms: _208  and  _209
REMARK   84  A    between atoms: _209  and  _210
REMARK   85  A    between atoms: _210  and  _211
REMARK   86  A    between atoms: _215  and  _217
REMARK   87  A    between atoms: _217  and  _218
REMARK   88  A    between atoms: _221  and  _223
REMARK   89  A    between atoms: _223  and  _224
REMARK   90  A    between atoms: _226  and  _228
REMARK   91  A    between atoms: _228  and  _229
REMARK   92  A    between atoms: _228  and  _231
REMARK   93  A    between atoms: _231  and  _232
REMARK   94  A    between atoms: _237  and  _239
REMARK   95  A    between atoms: _239  and  _240
REMARK   96  A    between atoms: _239  and  _242
REMARK   97  A    between atoms: _242  and  _243
REMARK   98  A    between atoms: _243  and  _244
REMARK   99  A    between atoms: _247  and  _249
REMARK  100  A    between atoms: _249  and  _250
REMARK  101  A    between atoms: _249  and  _252
REMARK  102  A    between atoms: _252  and  _253
REMARK  103  A    between atoms: _253  and  _254
REMARK  104  A    between atoms: _259  and  _261
REMARK  105  A    between atoms: _261  and  _262
REMARK  106  A    between atoms: _261  and  _264
REMARK  107  A    between atoms: _264  and  _265
REMARK  108  A    between atoms: _267  and  _269
REMARK  109  A    between atoms: _269  and  _270
REMARK  110  A    between atoms: _269  and  _272
REMARK  111  A    between atoms: _272  and  _273
REMARK  112  A    between atoms: _279  and  _281
REMARK  113  A    between atoms: _281  and  _282
REMARK  114  A    between atoms: _281  and  _284
REMARK  115  A    between atoms: _284  and  _285
REMARK  116  A    between atoms: _285  and  _286
REMARK  117  A    between atoms: _286  and  _287
REMARK  118  A    between atoms: _296  and  _298
REMARK  119  A    between atoms: _298  and  _299
REMARK  120  A    between atoms: _298  and  _301
REMARK  121  A    between atoms: _304  and  _306
REMARK  122  A    between atoms: _306  and  _307
REMARK  123  A    between atoms: _306  and  _309
REMARK  124  A    between atoms: _309  and  _310
REMARK  125  A    between atoms: _313  and  _315
REMARK  126  A    between atoms: _315  and  _316
REMARK  127  A    between atoms: _315  and  _318
REMARK  128  A    between atoms: _318  and  _319
REMARK  129  A    between atoms: _322  and  _324
REMARK  130  A    between atoms: _324  and  _325
REMARK  131  A    between atoms: _324  and  _327
REMARK  132  A    between atoms: _327  and  _328
REMARK  133  A    between atoms: _331  and  _333
REMARK  134  A    between atoms: _333  and  _334
REMARK  135  A    between atoms: _333  and  _336
REMARK  136  A    between atoms: _336  and  _337
REMARK  137  A    between atoms: _340  and  _342
REMARK  138  A    between atoms: _342  and  _343
REMARK  139  A    between atoms: _342  and  _345
REMARK  140  A    between atoms: _345  and  _346
REMARK  141  A    between atoms: _351  and  _352
REMARK  142  A    between atoms: _354  and  _356
REMARK  143  A    between atoms: _356  and  _357
REMARK  144  A    between atoms: _356  and  _359
REMARK  145  A    between atoms: _359  and  _360
REMARK  146  A    between atoms: _363  and  _365
REMARK  147  A    between atoms: _365  and  _366
REMARK  148  A    between atoms: _365  and  _368
REMARK  149  A    between atoms: _371  and  _373
REMARK  150  A    between atoms: _373  and  _374
REMARK  151  A    between atoms: _373  and  _376
REMARK  152  A    between atoms: _376  and  _377
REMARK  153  A    between atoms: _380  and  _382
REMARK  154  A    between atoms: _382  and  _383
REMARK  155  A    between atoms: _382  and  _385
REMARK  156  A    between atoms: _385  and  _386
REMARK  157  A    between atoms: _388  and  _390
REMARK  158  A    between atoms: _390  and  _391
REMARK  159  A    between atoms: _393  and  _395
REMARK  160  A    between atoms: _395  and  _396
REMARK  161  A    between atoms: _395  and  _398
REMARK  162  A    between atoms: _398  and  _399
REMARK  163  A    between atoms: _399  and  _640
REMARK  164  A    between atoms: _400  and  _402
REMARK  165  A    between atoms: _402  and  _403
REMARK  166  A    between atoms: _402  and  _405
REMARK  167  A    between atoms: _405  and  _406
REMARK  168  A    between atoms: _411  and  _412
REMARK  169  A    between atoms: _414  and  _416
REMARK  170  A    between atoms: _416  and  _417
REMARK  171  A    between atoms: _416  and  _419
REMARK  172  A    between atoms: _419  and  _420
REMARK  173  A    between atoms: _420  and  _421
REMARK  174  A    between atoms: _426  and  _428
REMARK  175  A    between atoms: _428  and  _429
REMARK  176  A    between atoms: _428  and  _431
REMARK  177  A    between atoms: _431  and  _432
REMARK  178  A    between atoms: _437  and  _438
REMARK  179  A    between atoms: _440  and  _442
REMARK  180  A    between atoms: _442  and  _443
REMARK  181  A    between atoms: _442  and  _445
REMARK  182  A    between atoms: _445  and  _446
REMARK  183  A    between atoms: _451  and  _452
REMARK  184  A    between atoms: _454  and  _456
REMARK  185  A    between atoms: _456  and  _457
REMARK  186  A    between atoms: _456  and  _459
REMARK  187  A    between atoms: _459  and  _460
REMARK  188  A    between atoms: _463  and  _465
REMARK  189  A    between atoms: _465  and  _466
REMARK  190  A    between atoms: _469  and  _471
REMARK  191  A    between atoms: _471  and  _472
REMARK  192  A    between atoms: _475  and  _477
REMARK  193  A    between atoms: _477  and  _478
REMARK  194  A    between atoms: _477  and  _480
REMARK  195  A    between atoms: _480  and  _481
REMARK  196  A    between atoms: _484  and  _486
REMARK  197  A    between atoms: _486  and  _487
REMARK  198  A    between atoms: _486  and  _489
REMARK  199  A    between atoms: _489  and  _490
REMARK  200  A    between atoms: _493  and  _495
REMARK  201  A    between atoms: _495  and  _496
REMARK  202  A    between atoms: _495  and  _498
REMARK  203  A    between atoms: _498  and  _499
REMARK  204  A    between atoms: _502  and  _504
REMARK  205  A    between atoms: _504  and  _505
REMARK  206  A    between atoms: _504  and  _507
REMARK  207  A    between atoms: _507  and  _508
REMARK  208  A    between atoms: _508  and  _509
REMARK  209  A    between atoms: _509  and  _510
REMARK  210  A    between atoms: _510  and  _511
REMARK  211  A    between atoms: _515  and  _517
REMARK  212  A    between atoms: _517  and  _518
REMARK  213  A    between atoms: _517  and  _520
REMARK  214  A    between atoms: _520  and  _521
REMARK  215  A    between atoms: _526  and  _528
REMARK  216  A    between atoms: _528  and  _529
REMARK  217  A    between atoms: _528  and  _531
REMARK  218  A    between atoms: _531  and  _532
REMARK  219  A    between atoms: _532  and  _533
REMARK  220  A    between atoms: _533  and  _534
REMARK  221  A    between atoms: _534  and  _535
REMARK  222  A    between atoms: _539  and  _541
REMARK  223  A    between atoms: _541  and  _542
REMARK  224  A    between atoms: _541  and  _544
REMARK  225  A    between atoms: _544  and  _545
REMARK  226  A    between atoms: _555  and  _557
REMARK  227  A    between atoms: _557  and  _558
REMARK  228  A    between atoms: _561  and  _563
REMARK  229  A    between atoms: _563  and  _564
REMARK  230  A    between atoms: _566  and  _568
REMARK  231  A    between atoms: _568  and  _569
REMARK  232  A    between atoms: _568  and  _571
REMARK  233  A    between atoms: _571  and  _572
REMARK  234  A    between atoms: _572  and  _573
REMARK  235  A    between atoms: _576  and  _578
REMARK  236  A    between atoms: _578  and  _579
REMARK  237  A    between atoms: _578  and  _581
REMARK  238  A    between atoms: _581  and  _582
REMARK  239  A    between atoms: _582  and  _583
REMARK  240  A    between atoms: _583  and  _584
REMARK  241  A    between atoms: _593  and  _595
REMARK  242  A    between atoms: _595  and  _596
REMARK  243  A    between atoms: _595  and  _598
REMARK  244  A    between atoms: _598  and  _599
REMARK  245  A    between atoms: _602  and  _604
REMARK  246  A    between atoms: _604  and  _605
REMARK  247  A    between atoms: _604  and  _607
REMARK  248  A    between atoms: _607  and  _608
REMARK  249  A    between atoms: _613  and  _614
REMARK  250  A    between atoms: _616  and  _618
REMARK  251  A    between atoms: _618  and  _619
REMARK  252  A    between atoms: _618  and  _621
REMARK  253  A    between atoms: _621  and  _622
REMARK  254  A    between atoms: _625  and  _627
REMARK  255  A    between atoms: _627  and  _628
REMARK  256  A    between atoms: _627  and  _630
REMARK  257  A    between atoms: _630  and  _631
REMARK  258  A    between atoms: _634  and  _636
REMARK  259  A    between atoms: _636  and  _637
REMARK  260  A    between atoms: _636  and  _639
REMARK  261  A    between atoms: _639  and  _640
REMARK  262  A    between atoms: _641  and  _643
REMARK  263  A    between atoms: _643  and  _644
REMARK  264  A    between atoms: _643  and  _646
REMARK  265  A    between atoms: _649  and  _651
REMARK  266  A    between atoms: _651  and  _652
REMARK  267  A    between atoms: _651  and  _654
REMARK  268  A    between atoms: _654  and  _655
REMARK  269  A    between atoms: _655  and  _656
REMARK  270  A    between atoms: _659  and  _661
REMARK  271  A    between atoms: _661  and  _662
REMARK  272  A    between atoms: _661  and  _664
REMARK  273  A    between atoms: _664  and  _665
REMARK  274  A    between atoms: _675  and  _677
REMARK  275  A    between atoms: _677  and  _678
REMARK  276  A    between atoms: _677  and  _680
REMARK  277  A    between atoms: _680  and  _681
REMARK  278  A    between atoms: _684  and  _686
REMARK  279  A    between atoms: _686  and  _687
REMARK  280  A    between atoms: _686  and  _689
REMARK  281  A    between atoms: _689  and  _690
REMARK  282  A    between atoms: _695  and  _696
REMARK                            x       y       z     vdW  Elec       q    Type
REMARK                         _______ _______ _______ _____ _____    ______ ____
ROOT
ATOM      1  CG  TYR A   1      34.536  55.006 -20.014  0.00  0.00    -0.020 A 
ATOM      2  CD2 TYR A   1      35.540  55.060 -19.048  0.00  0.00    -0.001 A 
ATOM      3  CE2 TYR A   1      36.072  56.269 -18.623  0.00  0.00    +0.036 A 
ATOM      4  CZ  TYR A   1      35.598  57.447 -19.164  0.00  0.00    +0.134 A 
ATOM      5  CE1 TYR A   1      34.597  57.428 -20.128  0.00  0.00    +0.036 A 
ATOM      6  CD1 TYR A   1      34.071  56.207 -20.548  0.00  0.00    -0.001 A 
ENDROOT
BRANCH   4   7
ATOM      7  OH  TYR A   1      36.123  58.641 -18.726  0.00  0.00    -0.506 OA
ATOM      8  HH  TYR A   1      35.965  58.733 -17.753  0.00  0.00    +0.292 HD
ENDBRANCH   4   7
BRANCH   1   9
ATOM      9  CB  TYR A   1      34.009  53.672 -20.488  0.00  0.00    +0.051 C 
BRANCH   9  10
ATOM     10  CA  TYR A   1      32.690  53.693 -21.267  0.00  0.00    +0.137 C 
BRANCH  10  11
ATOM     11  N   TYR A   1      31.563  54.052 -20.408  0.00  0.00    -0.239 NA
ATOM     12  H   TYR A   1      31.741  54.339 -19.424  0.00  0.00    +0.142 HD
ENDBRANCH  10  11
BRANCH  10  13
ATOM     13  C   TYR A   1      32.500  52.311 -21.868  0.00  0.00    +0.224 C 
ATOM     14  O   TYR A   1      32.740  52.104 -23.056  0.00  0.00    -0.287 OA
ENDBRANCH  10  13
ENDBRANCH   9  10
ENDBRANCH   1   9
TORSDOF 5
REMARK  Name = ../refined-set-2016/1g7q/1g7q_pocket.pdb
REMARK  282 active torsions:
REMARK  status: ('A' for Active; 'I' for Inactive)
REMARK    1  A    between atoms: _1  and  _3
REMARK    2  A    between atoms: _3  and  _4
REMARK    3  A    between atoms: _3  and  _6
REMARK    4  A    between atoms: _6  and  _7
REMARK    5  A    between atoms: _10  and  _12
REMARK    6  A    between atoms: _12  and  _13
REMARK    7  A    between atoms: _12  and  _15
REMARK    8  A    between atoms: _15  and  _16
REMARK    9  A    between atoms: _16  and  _17
REMARK   10  A    between atoms: _17  and  _18
REMARK   11  A    between atoms: _27  and  _29
REMARK   12  A    between atoms: _29  and  _30
REMARK   13  A    between atoms: _29  and  _32
REMARK   14  A    between atoms: _32  and  _33
REMARK   15  A    between atoms: _38  and  _39
REMARK   16  A    between atoms: _41  and  _43
REMARK   17  A    between atoms: _43  and  _44
REMARK   18  A    between atoms: _43  and  _46
REMARK   19  A    between atoms: _46  and  _47
REMARK   20  A    between atoms: _53  and  _55
REMARK   21  A    between atoms: _55  and  _56
REMARK   22  A    between atoms: _55  and  _58
REMARK   23  A    between atoms: _61  and  _63
REMARK   24  A    between atoms: _63  and  _64
REMARK   25  A    between atoms: _63  and  _66
REMARK   26  A    between atoms: _66  and  _67
REMARK   27  A    between atoms: _72  and  _73
REMARK   28  A    between atoms: _75  and  _77
REMARK   29  A    between atoms: _77  and  _78
REMARK   30  A    between atoms: _77  and  _80
REMARK   31  A    between atoms: _80  and  _81
REMARK   32  A    between atoms: _81  and  _82
REMARK   33  A    between atoms: _85  and  _87
REMARK   34  A    between atoms: _87  and  _88
REMARK   35  A    between atoms: _87  and  _90
REMARK   36  A    between atoms: _93  and  _95
REMARK   37  A    between atoms: _95  and  _96
REMARK   38  A    between atoms: _98  and  _100
REMARK   39  A    between atoms: _100  and  _101
REMARK   40  A    between atoms: _100  and  _103
REMARK   41  A    between atoms: _106  and  _108
REMARK   42  A    between atoms: _108  and  _109
REMARK   43  A    between atoms: _108  and  _111
REMARK   44  A    between atoms: _111  and  _112
REMARK   45  A    between atoms: _118  and  _120
REMARK   46  A    between atoms: _120  and  _121
REMARK   47  A    between atoms: _120  and  _123
REMARK   48  A    between atoms: _126  and  _128
REMARK   49  A    between atoms: _128  and  _129
REMARK   50  A    between atoms: _128  and  _131
REMARK   51  A    between atoms: _131  and  _132
REMARK   52  A    between atoms: _137  and  _138
REMARK   53  A    between atoms: _140  and  _142
REMARK   54  A    between atoms: _142  and  _143
REMARK   55  A    between atoms: _142  and  _145
REMARK   56  A    between atoms: _145  and  _146
REMARK   57  A    between atoms: _146  and  _147
REMARK   58  A    between atoms: _149  and  _151
REMARK   59  A    between atoms: _151  and  _152
REMARK   60  A    between atoms: _151  and  _154
REMARK   61  A    between atoms: _154  and  _155
REMARK   62  A    between atoms: _160  and  _161
REMARK   63  A    between atoms: _163  and  _165
REMARK   64  A    between atoms: _165  and  _166
REMARK   65  A    between atoms: _165  and  _168
REMARK   66  A    between atoms: _168  and  _169
REMARK   67  A    between atoms: _169  and  _170
REMARK   68  A    between atoms: _170  and  _171
REMARK   69  A    between atoms: _180  and  _182
REMARK   70  A    between atoms: _182  and  _183
REMARK   71  A    between atoms: _182  and  _185
REMARK   72  A    between atoms: _185  and  _186
REMARK   73  A    between atoms: _186  and  _187
REMARK   74  A    between atoms: _190  and  _192
REMARK   75  A    between atoms: _192  and  _193
REMARK   76  A    between atoms: _192  and  _195
REMARK   77  A    between atoms: _195  and  _196
REMARK   78  A    between atoms: _196  and  _197
REMARK   79  A    between atoms: _202  and  _204
REMARK   80  A    between atoms: _204  and  _205
REMARK   81  A    between atoms: _204  and  _207
REMARK   82  A    between atoms: _207  and  _208
REMARK   83  A    between atoms: _208  and  _209
REMARK   84  A    between atoms: _209  and  _210
REMARK   85  A    between atoms: _210  and  _211
REMARK   86  A    between atoms: _215  and  _217
REMARK   87  A    between atoms: _217  and  _218
REMARK   88  A    between atoms: _221  and  _223
REMARK   89  A    between atoms: _223  and  _224
REMARK   90  A    between atoms: _226  and  _228
REMARK   91  A    between atoms: _228  and  _229
REMARK   92  A    between atoms: _228  and  _231
REMARK   93  A    between atoms: _231  and  _232
REMARK   94  A    between atoms: _237  and  _239
REMARK   95  A    between atoms: _239  and  _240
REMARK   96  A    between atoms: _239  and  _242
REMARK   97  A    between atoms: _242  and  _243
REMARK   98  A    between atoms: _243  and  _244
REMARK   99  A    between atoms: _247  and  _249
REMARK  100  A    between atoms: _249  and  _250
REMARK  101  A    between atoms: _249  and  _252
REMARK  102  A    between atoms: _252  and  _253
REMARK  103  A    between atoms: _253  and  _254
REMARK  104  A    between atoms: _259  and  _261
REMARK  105  A    between atoms: _261  and  _262
REMARK  106  A    between atoms: _261  and  _264
REMARK  107  A    between atoms: _264  and  _265
REMARK  108  A    between atoms: _267  and  _269
REMARK  109  A    between atoms: _269  and  _270
REMARK  110  A    between atoms: _269  and  _272
REMARK  111  A    between atoms: _272  and  _273
REMARK  112  A    between atoms: _279  and  _281
REMARK  113  A    between atoms: _281  and  _282
REMARK  114  A    between atoms: _281  and  _284
REMARK  115  A    between atoms: _284  and  _285
REMARK  116  A    between atoms: _285  and  _286
REMARK  117  A    between atoms: _286  and  _287
REMARK  118  A    between atoms: _296  and  _298
REMARK  119  A    between atoms: _298  and  _299
REMARK  120  A    between atoms: _298  and  _301
REMARK  121  A    between atoms: _304  and  _306
REMARK  122  A    between atoms: _306  and  _307
REMARK  123  A    between atoms: _306  and  _309
REMARK  124  A    between atoms: _309  and  _310
REMARK  125  A    between atoms: _313  and  _315
REMARK  126  A    between atoms: _315  and  _316
REMARK  127  A    between atoms: _315  and  _318
REMARK  128  A    between atoms: _318  and  _319
REMARK  129  A    between atoms: _322  and  _324
REMARK  130  A    between atoms: _324  and  _325
REMARK  131  A    between atoms: _324  and  _327
REMARK  132  A    between atoms: _327  and  _328
REMARK  133  A    between atoms: _331  and  _333
REMARK  134  A    between atoms: _333  and  _334
REMARK  135  A    between atoms: _333  and  _336
REMARK  136  A    between atoms: _336  and  _337
REMARK  137  A    between atoms: _340  and  _342
REMARK  138  A    between atoms: _342  and  _343
REMARK  139  A    between atoms: _342  and  _345
REMARK  140  A    between atoms: _345  and  _346
REMARK  141  A    between atoms: _351  and  _352
REMARK  142  A    between atoms: _354  and  _356
REMARK  143  A    between atoms: _356  and  _357
REMARK  144  A    between atoms: _356  and  _359
REMARK  145  A    between atoms: _359  and  _360
REMARK  146  A    between atoms: _363  and  _365
REMARK  147  A    between atoms: _365  and  _366
REMARK  148  A    between atoms: _365  and  _368
REMARK  149  A    between atoms: _371  and  _373
REMARK  150  A    between atoms: _373  and  _374
REMARK  151  A    between atoms: _373  and  _376
REMARK  152  A    between atoms: _376  and  _377
REMARK  153  A    between atoms: _380  and  _382
REMARK  154  A    between atoms: _382  and  _383
REMARK  155  A    between atoms: _382  and  _385
REMARK  156  A    between atoms: _385  and  _386
REMARK  157  A    between atoms: _388  and  _390
REMARK  158  A    between atoms: _390  and  _391
REMARK  159  A    between atoms: _393  and  _395
REMARK  160  A    between atoms: _395  and  _396
REMARK  161  A    between atoms: _395  and  _398
REMARK  162  A    between atoms: _398  and  _399
REMARK  163  A    between atoms: _399  and  _640
REMARK  164  A    between atoms: _400  and  _402
REMARK  165  A    between atoms: _402  and  _403
REMARK  166  A    between atoms: _402  and  _405
REMARK  167  A    between atoms: _405  and  _406
REMARK  168  A    between atoms: _411  and  _412
REMARK  169  A    between atoms: _414  and  _416
REMARK  170  A    between atoms: _416  and  _417
REMARK  171  A    between atoms: _416  and  _419
REMARK  172  A    between atoms: _419  and  _420
REMARK  173  A    between atoms: _420  and  _421
REMARK  174  A    between atoms: _426  and  _428
REMARK  175  A    between atoms: _428  and  _429
REMARK  176  A    between atoms: _428  and  _431
REMARK  177  A    between atoms: _431  and  _432
REMARK  178  A    between atoms: _437  and  _438
REMARK  179  A    between atoms: _440  and  _442
REMARK  180  A    between atoms: _442  and  _443
REMARK  181  A    between atoms: _442  and  _445
REMARK  182  A    between atoms: _445  and  _446
REMARK  183  A    between atoms: _451  and  _452
REMARK  184  A    between atoms: _454  and  _456
REMARK  185  A    between atoms: _456  and  _457
REMARK  186  A    between atoms: _456  and  _459
REMARK  187  A    between atoms: _459  and  _460
REMARK  188  A    between atoms: _463  and  _465
REMARK  189  A    between atoms: _465  and  _466
REMARK  190  A    between atoms: _469  and  _471
REMARK  191  A    between atoms: _471  and  _472
REMARK  192  A    between atoms: _475  and  _477
REMARK  193  A    between atoms: _477  and  _478
REMARK  194  A    between atoms: _477  and  _480
REMARK  195  A    between atoms: _480  and  _481
REMARK  196  A    between atoms: _484  and  _486
REMARK  197  A    between atoms: _486  and  _487
REMARK  198  A    between atoms: _486  and  _489
REMARK  199  A    between atoms: _489  and  _490
REMARK  200  A    between atoms: _493  and  _495
REMARK  201  A    between atoms: _495  and  _496
REMARK  202  A    between atoms: _495  and  _498
REMARK  203  A    between atoms: _498  and  _499
REMARK  204  A    between atoms: _502  and  _504
REMARK  205  A    between atoms: _504  and  _505
REMARK  206  A    between atoms: _504  and  _507
REMARK  207  A    between atoms: _507  and  _508
REMARK  208  A    between atoms: _508  and  _509
REMARK  209  A    between atoms: _509  and  _510
REMARK  210  A    between atoms: _510  and  _511
REMARK  211  A    between atoms: _515  and  _517
REMARK  212  A    between atoms: _517  and  _518
REMARK  213  A    between atoms: _517  and  _520
REMARK  214  A    between atoms: _520  and  _521
REMARK  215  A    between atoms: _526  and  _528
REMARK  216  A    between atoms: _528  and  _529
REMARK  217  A    between atoms: _528  and  _531
REMARK  218  A    between atoms: _531  and  _532
REMARK  219  A    between atoms: _532  and  _533
REMARK  220  A    between atoms: _533  and  _534
REMARK  221  A    between atoms: _534  and  _535
REMARK  222  A    between atoms: _539  and  _541
REMARK  223  A    between atoms: _541  and  _542
REMARK  224  A    between atoms: _541  and  _544
REMARK  225  A    between atoms: _544  and  _545
REMARK  226  A    between atoms: _555  and  _557
REMARK  227  A    between atoms: _557  and  _558
REMARK  228  A    between atoms: _561  and  _563
REMARK  229  A    between atoms: _563  and  _564
REMARK  230  A    between atoms: _566  and  _568
REMARK  231  A    between atoms: _568  and  _569
REMARK  232  A    between atoms: _568  and  _571
REMARK  233  A    between atoms: _571  and  _572
REMARK  234  A    between atoms: _572  and  _573
REMARK  235  A    between atoms: _576  and  _578
REMARK  236  A    between atoms: _578  and  _579
REMARK  237  A    between atoms: _578  and  _581
REMARK  238  A    between atoms: _581  and  _582
REMARK  239  A    between atoms: _582  and  _583
REMARK  240  A    between atoms: _583  and  _584
REMARK  241  A    between atoms: _593  and  _595
REMARK  242  A    between atoms: _595  and  _596
REMARK  243  A    between atoms: _595  and  _598
REMARK  244  A    between atoms: _598  and  _599
REMARK  245  A    between atoms: _602  and  _604
REMARK  246  A    between atoms: _604  and  _605
REMARK  247  A    between atoms: _604  and  _607
REMARK  248  A    between atoms: _607  and  _608
REMARK  249  A    between atoms: _613  and  _614
REMARK  250  A    between atoms: _616  and  _618
REMARK  251  A    between atoms: _618  and  _619
REMARK  252  A    between atoms: _618  and  _621
REMARK  253  A    between atoms: _621  and  _622
REMARK  254  A    between atoms: _625  and  _627
REMARK  255  A    between atoms: _627  and  _628
REMARK  256  A    between atoms: _627  and  _630
REMARK  257  A    between atoms: _630  and  _631
REMARK  258  A    between atoms: _634  and  _636
REMARK  259  A    between atoms: _636  and  _637
REMARK  260  A    between atoms: _636  and  _639
REMARK  261  A    between atoms: _639  and  _640
REMARK  262  A    between atoms: _641  and  _643
REMARK  263  A    between atoms: _643  and  _644
REMARK  264  A    between atoms: _643  and  _646
REMARK  265  A    between atoms: _649  and  _651
REMARK  266  A    between atoms: _651  and  _652
REMARK  267  A    between atoms: _651  and  _654
REMARK  268  A    between atoms: _654  and  _655
REMARK  269  A    between atoms: _655  and  _656
REMARK  270  A    between atoms: _659  and  _661
REMARK  271  A    between atoms: _661  and  _662
REMARK  272  A    between atoms: _661  and  _664
REMARK  273  A    between atoms: _664  and  _665
REMARK  274  A    between atoms: _675  and  _677
REMARK  275  A    between atoms: _677  and  _678
REMARK  276  A    between atoms: _677  and  _680
REMARK  277  A    between atoms: _680  and  _681
REMARK  278  A    between atoms: _684  and  _686
REMARK  279  A    between atoms: _686  and  _687
REMARK  280  A    between atoms: _686  and  _689
REMARK  281  A    between atoms: _689  and  _690
REMARK  282  A    between atoms: _695  and  _696
REMARK                            x       y       z     vdW  Elec       q    Type
REMARK                         _______ _______ _______ _____ _____    ______ ____
ROOT
ATOM      1  CA  ILE A   1      37.052  48.911  -9.209  0.00  0.00    +0.133 C 
ENDROOT
BRANCH   1   2
ATOM      2  N   ILE A   1      35.878  48.132  -8.855  0.00  0.00    -0.239 NA
ATOM      3  H   ILE A   1      35.386  48.327  -7.959  0.00  0.00    +0.142 HD
ENDBRANCH   1   2
BRANCH   1   4
ATOM      4  C   ILE A   1      38.039  48.618  -8.090  0.00  0.00    +0.224 C 
ATOM      5  O   ILE A   1      37.670  48.604  -6.913  0.00  0.00    -0.287 OA
ENDBRANCH   1   4
BRANCH   1   6
ATOM      6  CB  ILE A   1      36.792  50.433  -9.261  0.00  0.00    +0.023 C 
ATOM      7  CG2 ILE A   1      38.121  51.180  -9.354  0.00  0.00    +0.002 C 
BRANCH   6   8
ATOM      8  CG1 ILE A   1      35.913  50.768 -10.468  0.00  0.00    +0.002 C 
ATOM      9  CD1 ILE A   1      35.610  52.239 -10.607  0.00  0.00    +0.000 C 
ENDBRANCH   6   8
ENDBRANCH   1   6
TORSDOF 4
REMARK  Name = ../refined-set-2016/1g7q/1g7q_pocket.pdb
REMARK  282 active torsions:
REMARK  status: ('A' for Active; 'I' for Inactive)
REMARK    1  A    between atoms: _1  and  _3
REMARK    2  A    between atoms: _3  and  _4
REMARK    3  A    between atoms: _3  and  _6
REMARK    4  A    between atoms: _6  and  _7
REMARK    5  A    between atoms: _10  and  _12
REMARK    6  A    between atoms: _12  and  _13
REMARK    7  A    between atoms: _12  and  _15
REMARK    8  A    between atoms: _15  and  _16
REMARK    9  A    between atoms: _16  and  _17
REMARK   10  A    between atoms: _17  and  _18
REMARK   11  A    between atoms: _27  and  _29
REMARK   12  A    between atoms: _29  and  _30
REMARK   13  A    between atoms: _29  and  _32
REMARK   14  A    between atoms: _32  and  _33
REMARK   15  A    between atoms: _38  and  _39
REMARK   16  A    between atoms: _41  and  _43
REMARK   17  A    between atoms: _43  and  _44
REMARK   18  A    between atoms: _43  and  _46
REMARK   19  A    between atoms: _46  and  _47
REMARK   20  A    between atoms: _53  and  _55
REMARK   21  A    between atoms: _55  and  _56
REMARK   22  A    between atoms: _55  and  _58
REMARK   23  A    between atoms: _61  and  _63
REMARK   24  A    between atoms: _63  and  _64
REMARK   25  A    between atoms: _63  and  _66
REMARK   26  A    between atoms: _66  and  _67
REMARK   27  A    between atoms: _72  and  _73
REMARK   28  A    between atoms: _75  and  _77
REMARK   29  A    between atoms: _77  and  _78
REMARK   30  A    between atoms: _77  and  _80
REMARK   31  A    between atoms: _80  and  _81
REMARK   32  A    between atoms: _81  and  _82
REMARK   33  A    between atoms: _85  and  _87
REMARK   34  A    between atoms: _87  and  _88
REMARK   35  A    between atoms: _87  and  _90
REMARK   36  A    between atoms: _93  and  _95
REMARK   37  A    between atoms: _95  and  _96
REMARK   38  A    between atoms: _98  and  _100
REMARK   39  A    between atoms: _100  and  _101
REMARK   40  A    between atoms: _100  and  _103
REMARK   41  A    between atoms: _106  and  _108
REMARK   42  A    between atoms: _108  and  _109
REMARK   43  A    between atoms: _108  and  _111
REMARK   44  A    between atoms: _111  and  _112
REMARK   45  A    between atoms: _118  and  _120
REMARK   46  A    between atoms: _120  and  _121
REMARK   47  A    between atoms: _120  and  _123
REMARK   48  A    between atoms: _126  and  _128
REMARK   49  A    between atoms: _128  and  _129
REMARK   50  A    between atoms: _128  and  _131
REMARK   51  A    between atoms: _131  and  _132
REMARK   52  A    between atoms: _137  and  _138
REMARK   53  A    between atoms: _140  and  _142
REMARK   54  A    between atoms: _142  and  _143
REMARK   55  A    between atoms: _142  and  _145
REMARK   56  A    between atoms: _145  and  _146
REMARK   57  A    between atoms: _146  and  _147
REMARK   58  A    between atoms: _149  and  _151
REMARK   59  A    between atoms: _151  and  _152
REMARK   60  A    between atoms: _151  and  _154
REMARK   61  A    between atoms: _154  and  _155
REMARK   62  A    between atoms: _160  and  _161
REMARK   63  A    between atoms: _163  and  _165
REMARK   64  A    between atoms: _165  and  _166
REMARK   65  A    between atoms: _165  and  _168
REMARK   66  A    between atoms: _168  and  _169
REMARK   67  A    between atoms: _169  and  _170
REMARK   68  A    between atoms: _170  and  _171
REMARK   69  A    between atoms: _180  and  _182
REMARK   70  A    between atoms: _182  and  _183
REMARK   71  A    between atoms: _182  and  _185
REMARK   72  A    between atoms: _185  and  _186
REMARK   73  A    between atoms: _186  and  _187
REMARK   74  A    between atoms: _190  and  _192
REMARK   75  A    between atoms: _192  and  _193
REMARK   76  A    between atoms: _192  and  _195
REMARK   77  A    between atoms: _195  and  _196
REMARK   78  A    between atoms: _196  and  _197
REMARK   79  A    between atoms: _202  and  _204
REMARK   80  A    between atoms: _204  and  _205
REMARK   81  A    between atoms: _204  and  _207
REMARK   82  A    between atoms: _207  and  _208
REMARK   83  A    between atoms: _208  and  _209
REMARK   84  A    between atoms: _209  and  _210
REMARK   85  A    between atoms: _210  and  _211
REMARK   86  A    between atoms: _215  and  _217
REMARK   87  A    between atoms: _217  and  _218
REMARK   88  A    between atoms: _221  and  _223
REMARK   89  A    between atoms: _223  and  _224
REMARK   90  A    between atoms: _226  and  _228
REMARK   91  A    between atoms: _228  and  _229
REMARK   92  A    between atoms: _228  and  _231
REMARK   93  A    between atoms: _231  and  _232
REMARK   94  A    between atoms: _237  and  _239
REMARK   95  A    between atoms: _239  and  _240
REMARK   96  A    between atoms: _239  and  _242
REMARK   97  A    between atoms: _242  and  _243
REMARK   98  A    between atoms: _243  and  _244
REMARK   99  A    between atoms: _247  and  _249
REMARK  100  A    between atoms: _249  and  _250
REMARK  101  A    between atoms: _249  and  _252
REMARK  102  A    between atoms: _252  and  _253
REMARK  103  A    between atoms: _253  and  _254
REMARK  104  A    between atoms: _259  and  _261
REMARK  105  A    between atoms: _261  and  _262
REMARK  106  A    between atoms: _261  and  _264
REMARK  107  A    between atoms: _264  and  _265
REMARK  108  A    between atoms: _267  and  _269
REMARK  109  A    between atoms: _269  and  _270
REMARK  110  A    between atoms: _269  and  _272
REMARK  111  A    between atoms: _272  and  _273
REMARK  112  A    between atoms: _279  and  _281
REMARK  113  A    between atoms: _281  and  _282
REMARK  114  A    between atoms: _281  and  _284
REMARK  115  A    between atoms: _284  and  _285
REMARK  116  A    between atoms: _285  and  _286
REMARK  117  A    between atoms: _286  and  _287
REMARK  118  A    between atoms: _296  and  _298
REMARK  119  A    between atoms: _298  and  _299
REMARK  120  A    between atoms: _298  and  _301
REMARK  121  A    between atoms: _304  and  _306
REMARK  122  A    between atoms: _306  and  _307
REMARK  123  A    between atoms: _306  and  _309
REMARK  124  A    between atoms: _309  and  _310
REMARK  125  A    between atoms: _313  and  _315
REMARK  126  A    between atoms: _315  and  _316
REMARK  127  A    between atoms: _315  and  _318
REMARK  128  A    between atoms: _318  and  _319
REMARK  129  A    between atoms: _322  and  _324
REMARK  130  A    between atoms: _324  and  _325
REMARK  131  A    between atoms: _324  and  _327
REMARK  132  A    between atoms: _327  and  _328
REMARK  133  A    between atoms: _331  and  _333
REMARK  134  A    between atoms: _333  and  _334
REMARK  135  A    between atoms: _333  and  _336
REMARK  136  A    between atoms: _336  and  _337
REMARK  137  A    between atoms: _340  and  _342
REMARK  138  A    between atoms: _342  and  _343
REMARK  139  A    between atoms: _342  and  _345
REMARK  140  A    between atoms: _345  and  _346
REMARK  141  A    between atoms: _351  and  _352
REMARK  142  A    between atoms: _354  and  _356
REMARK  143  A    between atoms: _356  and  _357
REMARK  144  A    between atoms: _356  and  _359
REMARK  145  A    between atoms: _359  and  _360
REMARK  146  A    between atoms: _363  and  _365
REMARK  147  A    between atoms: _365  and  _366
REMARK  148  A    between atoms: _365  and  _368
REMARK  149  A    between atoms: _371  and  _373
REMARK  150  A    between atoms: _373  and  _374
REMARK  151  A    between atoms: _373  and  _376
REMARK  152  A    between atoms: _376  and  _377
REMARK  153  A    between atoms: _380  and  _382
REMARK  154  A    between atoms: _382  and  _383
REMARK  155  A    between atoms: _382  and  _385
REMARK  156  A    between atoms: _385  and  _386
REMARK  157  A    between atoms: _388  and  _390
REMARK  158  A    between atoms: _390  and  _391
REMARK  159  A    between atoms: _393  and  _395
REMARK  160  A    between atoms: _395  and  _396
REMARK  161  A    between atoms: _395  and  _398
REMARK  162  A    between atoms: _398  and  _399
REMARK  163  A    between atoms: _399  and  _640
REMARK  164  A    between atoms: _400  and  _402
REMARK  165  A    between atoms: _402  and  _403
REMARK  166  A    between atoms: _402  and  _405
REMARK  167  A    between atoms: _405  and  _406
REMARK  168  A    between atoms: _411  and  _412
REMARK  169  A    between atoms: _414  and  _416
REMARK  170  A    between atoms: _416  and  _417
REMARK  171  A    between atoms: _416  and  _419
REMARK  172  A    between atoms: _419  and  _420
REMARK  173  A    between atoms: _420  and  _421
REMARK  174  A    between atoms: _426  and  _428
REMARK  175  A    between atoms: _428  and  _429
REMARK  176  A    between atoms: _428  and  _431
REMARK  177  A    between atoms: _431  and  _432
REMARK  178  A    between atoms: _437  and  _438
REMARK  179  A    between atoms: _440  and  _442
REMARK  180  A    between atoms: _442  and  _443
REMARK  181  A    between atoms: _442  and  _445
REMARK  182  A    between atoms: _445  and  _446
REMARK  183  A    between atoms: _451  and  _452
REMARK  184  A    between atoms: _454  and  _456
REMARK  185  A    between atoms: _456  and  _457
REMARK  186  A    between atoms: _456  and  _459
REMARK  187  A    between atoms: _459  and  _460
REMARK  188  A    between atoms: _463  and  _465
REMARK  189  A    between atoms: _465  and  _466
REMARK  190  A    between atoms: _469  and  _471
REMARK  191  A    between atoms: _471  and  _472
REMARK  192  A    between atoms: _475  and  _477
REMARK  193  A    between atoms: _477  and  _478
REMARK  194  A    between atoms: _477  and  _480
REMARK  195  A    between atoms: _480  and  _481
REMARK  196  A    between atoms: _484  and  _486
REMARK  197  A    between atoms: _486  and  _487
REMARK  198  A    between atoms: _486  and  _489
REMARK  199  A    between atoms: _489  and  _490
REMARK  200  A    between atoms: _493  and  _495
REMARK  201  A    between atoms: _495  and  _496
REMARK  202  A    between atoms: _495  and  _498
REMARK  203  A    between atoms: _498  and  _499
REMARK  204  A    between atoms: _502  and  _504
REMARK  205  A    between atoms: _504  and  _505
REMARK  206  A    between atoms: _504  and  _507
REMARK  207  A    between atoms: _507  and  _508
REMARK  208  A    between atoms: _508  and  _509
REMARK  209  A    between atoms: _509  and  _510
REMARK  210  A    between atoms: _510  and  _511
REMARK  211  A    between atoms: _515  and  _517
REMARK  212  A    between atoms: _517  and  _518
REMARK  213  A    between atoms: _517  and  _520
REMARK  214  A    between atoms: _520  and  _521
REMARK  215  A    between atoms: _526  and  _528
REMARK  216  A    between atoms: _528  and  _529
REMARK  217  A    between atoms: _528  and  _531
REMARK  218  A    between atoms: _531  and  _532
REMARK  219  A    between atoms: _532  and  _533
REMARK  220  A    between atoms: _533  and  _534
REMARK  221  A    between atoms: _534  and  _535
REMARK  222  A    between atoms: _539  and  _541
REMARK  223  A    between atoms: _541  and  _542
REMARK  224  A    between atoms: _541  and  _544
REMARK  225  A    between atoms: _544  and  _545
REMARK  226  A    between atoms: _555  and  _557
REMARK  227  A    between atoms: _557  and  _558
REMARK  228  A    between atoms: _561  and  _563
REMARK  229  A    between atoms: _563  and  _564
REMARK  230  A    between atoms: _566  and  _568
REMARK  231  A    between atoms: _568  and  _569
REMARK  232  A    between atoms: _568  and  _571
REMARK  233  A    between atoms: _571  and  _572
REMARK  234  A    between atoms: _572  and  _573
REMARK  235  A    between atoms: _576  and  _578
REMARK  236  A    between atoms: _578  and  _579
REMARK  237  A    between atoms: _578  and  _581
REMARK  238  A    between atoms: _581  and  _582
REMARK  239  A    between atoms: _582  and  _583
REMARK  240  A    between atoms: _583  and  _584
REMARK  241  A    between atoms: _593  and  _595
REMARK  242  A    between atoms: _595  and  _596
REMARK  243  A    between atoms: _595  and  _598
REMARK  244  A    between atoms: _598  and  _599
REMARK  245  A    between atoms: _602  and  _604
REMARK  246  A    between atoms: _604  and  _605
REMARK  247  A    between atoms: _604  and  _607
REMARK  248  A    between atoms: _607  and  _608
REMARK  249  A    between atoms: _613  and  _614
REMARK  250  A    between atoms: _616  and  _618
REMARK  251  A    between atoms: _618  and  _619
REMARK  252  A    between atoms: _618  and  _621
REMARK  253  A    between atoms: _621  and  _622
REMARK  254  A    between atoms: _625  and  _627
REMARK  255  A    between atoms: _627  and  _628
REMARK  256  A    between atoms: _627  and  _630
REMARK  257  A    between atoms: _630  and  _631
REMARK  258  A    between atoms: _634  and  _636
REMARK  259  A    between atoms: _636  and  _637
REMARK  260  A    between atoms: _636  and  _639
REMARK  261  A    between atoms: _639  and  _640
REMARK  262  A    between atoms: _641  and  _643
REMARK  263  A    between atoms: _643  and  _644
REMARK  264  A    between atoms: _643  and  _646
REMARK  265  A    between atoms: _649  and  _651
REMARK  266  A    between atoms: _651  and  _652
REMARK  267  A    between atoms: _651  and  _654
REMARK  268  A    between atoms: _654  and  _655
REMARK  269  A    between atoms: _655  and  _656
REMARK  270  A    between atoms: _659  and  _661
REMARK  271  A    between atoms: _661  and  _662
REMARK  272  A    between atoms: _661  and  _664
REMARK  273  A    between atoms: _664  and  _665
REMARK  274  A    between atoms: _675  and  _677
REMARK  275  A    between atoms: _677  and  _678
REMARK  276  A    between atoms: _677  and  _680
REMARK  277  A    between atoms: _680  and  _681
REMARK  278  A    between atoms: _684  and  _686
REMARK  279  A    between atoms: _686  and  _687
REMARK  280  A    between atoms: _686  and  _689
REMARK  281  A    between atoms: _689  and  _690
REMARK  282  A    between atoms: _695  and  _696
REMARK                            x       y       z     vdW  Elec       q    Type
REMARK                         _______ _______ _______ _____ _____    ______ ____
ROOT
ATOM      1  CA  CYS A   2      54.022  58.434   0.647  0.00  0.00    +0.160 C 
ENDROOT
BRANCH   1   2
ATOM      2  C   CYS A   2      55.322  58.040   1.352  0.00  0.00    +0.242 C 
ATOM      3  O   CYS A   2      55.313  57.326   2.356  0.00  0.00    -0.273 OA
ATOM      4  N   VAL A   3      56.441  58.515   0.822  0.00  0.00    -0.297 N 
ATOM      5  H   VAL A   3      56.385  59.118  -0.024  0.00  0.00    +0.150 HD
BRANCH   4   6
ATOM      6  CA  VAL A   3      57.746  58.214   1.394  0.00  0.00    +0.149 C 
BRANCH   6   7
ATOM      7  C   VAL A   3      57.878  58.745   2.821  0.00  0.00    +0.241 C 
ATOM      8  O   VAL A   3      58.321  58.033   3.725  0.00  0.00    -0.273 OA
ATOM      9  N   GLU A   4      57.487  59.998   3.017  0.00  0.00    -0.297 N 
ATOM     10  H   GLU A   4      57.102  60.544   2.220  0.00  0.00    +0.150 HD
BRANCH   9  11
ATOM     11  CA  GLU A   4      57.588  60.619   4.325  0.00  0.00    +0.149 C 
BRANCH  11  12
ATOM     12  C   GLU A   4      56.737  59.935   5.380  0.00  0.00    +0.241 C 
ATOM     13  O   GLU A   4      57.176  59.775   6.517  0.00  0.00    -0.273 OA
ATOM     14  N   TRP A   5      55.524  59.529   5.018  0.00  0.00    -0.297 N 
ATOM     15  H   TRP A   5      55.182  59.700   4.051  0.00  0.00    +0.150 HD
BRANCH  14  16
ATOM     16  CA  TRP A   5      54.676  58.843   5.984  0.00  0.00    +0.153 C 
BRANCH  16  17
ATOM     17  C   TRP A   5      55.223  57.452   6.255  0.00  0.00    +0.241 C 
ATOM     18  O   TRP A   5      55.210  56.996   7.398  0.00  0.00    -0.273 OA
ATOM     19  N   LEU A   6      55.711  56.780   5.215  0.00  0.00    -0.298 N 
ATOM     20  H   LEU A   6      55.693  57.204   4.266  0.00  0.00    +0.150 HD
BRANCH  19  21
ATOM     21  CA  LEU A   6      56.271  55.448   5.409  0.00  0.00    +0.137 C 
BRANCH  21  22
ATOM     22  C   LEU A   6      57.416  55.513   6.421  0.00  0.00    +0.227 C 
ATOM     23  O   LEU A   6      57.493  54.686   7.325  0.00  0.00    -0.286 OA
ENDBRANCH  21  22
BRANCH  21  24
ATOM     24  CB  LEU A   6      56.767  54.864   4.081  0.00  0.00    +0.028 C 
BRANCH  24  25
ATOM     25  CG  LEU A   6      57.483  53.507   4.157  0.00  0.00    +0.002 C 
ATOM     26  CD2 LEU A   6      56.655  52.487   4.937  0.00  0.00    +0.000 C 
ATOM     27  CD1 LEU A   6      57.740  53.017   2.745  0.00  0.00    +0.000 C 
ENDBRANCH  24  25
ENDBRANCH  21  24
ENDBRANCH  19  21
ENDBRANCH  16  17
BRANCH  16  28
ATOM     28  CB  TRP A   5      53.230  58.761   5.496  0.00  0.00    +0.057 C 
BRANCH  28  29
ATOM     29  CG  TRP A   5      52.489  60.022   5.781  0.00  0.00    -0.002 A 
ATOM     30  CD2 TRP A   5      51.986  60.444   7.055  0.00  0.00    +0.013 A 
ATOM     31  CE3 TRP A   5      51.947  59.857   8.327  0.00  0.00    +0.001 A 
ATOM     32  CZ3 TRP A   5      51.368  60.571   9.377  0.00  0.00    +0.000 A 
ATOM     33  CH2 TRP A   5      50.832  61.854   9.169  0.00  0.00    +0.001 A 
ATOM     34  CZ2 TRP A   5      50.860  62.450   7.934  0.00  0.00    +0.017 A 
ATOM     35  CE2 TRP A   5      51.440  61.733   6.881  0.00  0.00    +0.056 A 
ATOM     36  NE1 TRP A   5      51.603  62.072   5.562  0.00  0.00    -0.352 N 
ATOM     37  HE1 TRP A   5      51.300  62.966   5.126  0.00  0.00    +0.166 HD
ATOM     38  CD1 TRP A   5      52.232  61.038   4.911  0.00  0.00    +0.068 A 
ENDBRANCH  28  29
ENDBRANCH  16  28
ENDBRANCH  14  16
ENDBRANCH  11  12
BRANCH  11  39
ATOM     39  CB  GLU A   4      57.236  62.102   4.220  0.00  0.00    +0.041 C 
BRANCH  39  40
ATOM     40  CG  GLU A   4      58.354  62.912   3.570  0.00  0.00    +0.116 C 
BRANCH  40  41
ATOM     41  CD  GLU A   4      57.900  64.272   3.089  0.00  0.00    +0.365 C 
ATOM     42  OE2 GLU A   4      57.090  64.915   3.789  0.00  0.00    -0.246 OA
ATOM     43  OE1 GLU A   4      58.369  64.700   2.012  0.00  0.00    -0.246 OA
ENDBRANCH  40  41
ENDBRANCH  39  40
ENDBRANCH  11  39
ENDBRANCH   9  11
ENDBRANCH   6   7
BRANCH   6  44
ATOM     44  CB  VAL A   3      58.869  58.823   0.526  0.00  0.00    +0.027 C 
ATOM     45  CG2 VAL A   3      60.186  58.814   1.286  0.00  0.00    +0.002 C 
ATOM     46  CG1 VAL A   3      59.003  58.033  -0.772  0.00  0.00    +0.002 C 
ENDBRANCH   6  44
ENDBRANCH   4   6
ENDBRANCH   1   2
BRANCH   1  47
ATOM     47  N   CYS A   2      53.947  59.867   0.383  0.00  0.00    -0.296 N 
ATOM     48  C   THR A   1      53.967  60.748   1.372  0.00  0.00    +0.241 C 
ATOM     49  O   THR A   1      54.060  60.422   2.557  0.00  0.00    -0.274 OA
ATOM     50  H   CYS A   2      53.877  60.203  -0.599  0.00  0.00    +0.150 HD
BRANCH  48  51
ATOM     51  CA  THR A   1      53.850  62.213   0.975  0.00  0.00    +0.172 C 
BRANCH  51  52
ATOM     52  CB  THR A   1      52.396  62.464   0.530  0.00  0.00    +0.135 C 
ATOM     53  CG2 THR A   1      51.429  62.150   1.658  0.00  0.00    +0.034 C 
BRANCH  52  54
ATOM     54  OG1 THR A   1      52.246  63.839   0.153  0.00  0.00    -0.383 OA
ATOM     55  HG1 THR A   1      51.312  64.002  -0.133  0.00  0.00    +0.210 HD
ENDBRANCH  52  54
ENDBRANCH  51  52
BRANCH  51  56
ATOM     56  N   THR A   1      54.784  62.649  -0.059  0.00  0.00    -0.236 NA
ATOM     57  H   THR A   1      54.411  63.184  -0.869  0.00  0.00    +0.142 HD
ENDBRANCH  51  56
ENDBRANCH  48  51
ENDBRANCH   1  47
BRANCH   1  58
ATOM     58  CB  CYS A   2      53.877  57.662  -0.667  0.00  0.00    +0.098 C 
BRANCH  58  59
ATOM     59  SG  CYS A   2      53.693  55.861  -0.456  0.00  0.00    -0.080 S 
BRANCH  59  60
ATOM     60  SG  TRP A   5      55.625  55.187  -0.363  0.00  0.00    -0.080 S 
BRANCH  60  61
ATOM     61  CB  TRP A   5      56.044  54.771  -2.092  0.00  0.00    +0.096 C 
BRANCH  61  62
ATOM     62  CA  TRP A   5      55.849  53.302  -2.505  0.00  0.00    +0.149 C 
BRANCH  62  64
ATOM     63  C   GLU A   4      53.574  52.944  -3.244  0.00  0.00    +0.243 C 
ATOM     64  N   TRP A   5      54.479  52.892  -2.279  0.00  0.00    -0.297 N 
ATOM     65  H   TRP A   5      54.200  52.549  -1.338  0.00  0.00    +0.150 HD
ATOM     66  O   GLU A   4      53.814  53.346  -4.385  0.00  0.00    -0.273 OA
BRANCH  63  67
ATOM     67  CA  GLU A   4      52.206  52.468  -2.838  0.00  0.00    +0.176 C 
BRANCH  67  70
ATOM     68  C   VAL A   3      49.942  52.290  -3.521  0.00  0.00    +0.243 C 
ATOM     69  O   VAL A   3      49.656  51.772  -2.447  0.00  0.00    -0.273 OA
ATOM     70  N   GLU A   4      51.173  52.673  -3.825  0.00  0.00    -0.295 N 
ATOM     71  H   GLU A   4      51.388  53.107  -4.745  0.00  0.00    +0.150 HD
BRANCH  68  72
ATOM     72  CA  VAL A   3      48.881  52.515  -4.568  0.00  0.00    +0.178 C 
BRANCH  72  74
ATOM     73  C   CYS A   2      47.701  50.680  -5.647  0.00  0.00    +0.241 C 
ATOM     74  N   VAL A   3      48.003  51.356  -4.543  0.00  0.00    -0.295 N 
ATOM     75  H   VAL A   3      47.600  51.047  -3.635  0.00  0.00    +0.150 HD
ATOM     76  O   CYS A   2      48.102  51.009  -6.765  0.00  0.00    -0.273 OA
BRANCH  73  77
ATOM     77  CA  CYS A   2      46.765  49.490  -5.464  0.00  0.00    +0.148 C 
BRANCH  77  80
ATOM     78  C   THR A   1      44.404  49.851  -5.903  0.00  0.00    +0.238 C 
ATOM     79  O   THR A   1      44.082  49.606  -4.736  0.00  0.00    -0.274 OA
ATOM     80  N   CYS A   2      45.650  49.757  -6.355  0.00  0.00    -0.297 N 
ATOM     81  H   CYS A   2      45.831  49.878  -7.372  0.00  0.00    +0.150 HD
BRANCH  78  82
ATOM     82  CA  THR A   1      43.355  50.235  -6.931  0.00  0.00    +0.145 C 
BRANCH  82  83
ATOM     83  CB  THR A   1      43.056  51.746  -6.760  0.00  0.00    +0.025 C 
ATOM     84  CG2 THR A   1      44.301  52.557  -7.095  0.00  0.00    +0.002 C 
ATOM     85  CG1 THR A   1      41.886  52.156  -7.646  0.00  0.00    +0.002 C 
ENDBRANCH  82  83
BRANCH  82  86
ATOM     86  N   THR A   1      42.174  49.422  -6.750  0.00  0.00    -0.238 NA
ATOM     87  H   THR A   1      41.832  49.214  -5.790  0.00  0.00    +0.142 HD
ENDBRANCH  82  86
ENDBRANCH  78  82
ENDBRANCH  77  80
BRANCH  77  88
ATOM     88  CB  CYS A   2      47.493  48.148  -5.787  0.00  0.00    +0.027 C 
ATOM     89  CG2 CYS A   2      47.811  48.048  -7.267  0.00  0.00    +0.002 C 
BRANCH  88  90
ATOM     90  CG1 CYS A   2      48.766  48.033  -4.944  0.00  0.00    +0.002 C 
ATOM     91  CD1 CYS A   2      48.518  48.027  -3.448  0.00  0.00    +0.000 C 
ENDBRANCH  88  90
ENDBRANCH  77  88
ENDBRANCH  73  77
ENDBRANCH  72  74
BRANCH  72  92
ATOM     92  CB  VAL A   3      48.103  53.784  -4.229  0.00  0.00    +0.166 C 
BRANCH  92  93
ATOM     93  O   VAL A   3      47.043  53.982  -5.138  0.00  0.00    -0.380 OA
ATOM     94  H   VAL A   3      46.426  53.209  -5.097  0.00  0.00    +0.211 HD
ENDBRANCH  92  93
ENDBRANCH  72  92
ENDBRANCH  68  72
ENDBRANCH  67  70
ENDBRANCH  63  67
ENDBRANCH  62  64
BRANCH  62  95
ATOM     95  C   TRP A   5      56.734  52.382  -1.686  0.00  0.00    +0.228 C 
ATOM     96  O   TRP A   5      56.301  51.815  -0.679  0.00  0.00    -0.286 OA
ENDBRANCH  62  95
ENDBRANCH  61  62
ENDBRANCH  60  61
ENDBRANCH  59  60
ENDBRANCH  58  59
ENDBRANCH   1  58
TORSDOF 42
REMARK  Name = ../refined-set-2016/1g7q/1g7q_pocket.pdb
REMARK  282 active torsions:
REMARK  status: ('A' for Active; 'I' for Inactive)
REMARK    1  A    between atoms: _1  and  _3
REMARK    2  A    between atoms: _3  and  _4
REMARK    3  A    between atoms: _3  and  _6
REMARK    4  A    between atoms: _6  and  _7
REMARK    5  A    between atoms: _10  and  _12
REMARK    6  A    between atoms: _12  and  _13
REMARK    7  A    between atoms: _12  and  _15
REMARK    8  A    between atoms: _15  and  _16
REMARK    9  A    between atoms: _16  and  _17
REMARK   10  A    between atoms: _17  and  _18
REMARK   11  A    between atoms: _27  and  _29
REMARK   12  A    between atoms: _29  and  _30
REMARK   13  A    between atoms: _29  and  _32
REMARK   14  A    between atoms: _32  and  _33
REMARK   15  A    between atoms: _38  and  _39
REMARK   16  A    between atoms: _41  and  _43
REMARK   17  A    between atoms: _43  and  _44
REMARK   18  A    between atoms: _43  and  _46
REMARK   19  A    between atoms: _46  and  _47
REMARK   20  A    between atoms: _53  and  _55
REMARK   21  A    between atoms: _55  and  _56
REMARK   22  A    between atoms: _55  and  _58
REMARK   23  A    between atoms: _61  and  _63
REMARK   24  A    between atoms: _63  and  _64
REMARK   25  A    between atoms: _63  and  _66
REMARK   26  A    between atoms: _66  and  _67
REMARK   27  A    between atoms: _72  and  _73
REMARK   28  A    between atoms: _75  and  _77
REMARK   29  A    between atoms: _77  and  _78
REMARK   30  A    between atoms: _77  and  _80
REMARK   31  A    between atoms: _80  and  _81
REMARK   32  A    between atoms: _81  and  _82
REMARK   33  A    between atoms: _85  and  _87
REMARK   34  A    between atoms: _87  and  _88
REMARK   35  A    between atoms: _87  and  _90
REMARK   36  A    between atoms: _93  and  _95
REMARK   37  A    between atoms: _95  and  _96
REMARK   38  A    between atoms: _98  and  _100
REMARK   39  A    between atoms: _100  and  _101
REMARK   40  A    between atoms: _100  and  _103
REMARK   41  A    between atoms: _106  and  _108
REMARK   42  A    between atoms: _108  and  _109
REMARK   43  A    between atoms: _108  and  _111
REMARK   44  A    between atoms: _111  and  _112
REMARK   45  A    between atoms: _118  and  _120
REMARK   46  A    between atoms: _120  and  _121
REMARK   47  A    between atoms: _120  and  _123
REMARK   48  A    between atoms: _126  and  _128
REMARK   49  A    between atoms: _128  and  _129
REMARK   50  A    between atoms: _128  and  _131
REMARK   51  A    between atoms: _131  and  _132
REMARK   52  A    between atoms: _137  and  _138
REMARK   53  A    between atoms: _140  and  _142
REMARK   54  A    between atoms: _142  and  _143
REMARK   55  A    between atoms: _142  and  _145
REMARK   56  A    between atoms: _145  and  _146
REMARK   57  A    between atoms: _146  and  _147
REMARK   58  A    between atoms: _149  and  _151
REMARK   59  A    between atoms: _151  and  _152
REMARK   60  A    between atoms: _151  and  _154
REMARK   61  A    between atoms: _154  and  _155
REMARK   62  A    between atoms: _160  and  _161
REMARK   63  A    between atoms: _163  and  _165
REMARK   64  A    between atoms: _165  and  _166
REMARK   65  A    between atoms: _165  and  _168
REMARK   66  A    between atoms: _168  and  _169
REMARK   67  A    between atoms: _169  and  _170
REMARK   68  A    between atoms: _170  and  _171
REMARK   69  A    between atoms: _180  and  _182
REMARK   70  A    between atoms: _182  and  _183
REMARK   71  A    between atoms: _182  and  _185
REMARK   72  A    between atoms: _185  and  _186
REMARK   73  A    between atoms: _186  and  _187
REMARK   74  A    between atoms: _190  and  _192
REMARK   75  A    between atoms: _192  and  _193
REMARK   76  A    between atoms: _192  and  _195
REMARK   77  A    between atoms: _195  and  _196
REMARK   78  A    between atoms: _196  and  _197
REMARK   79  A    between atoms: _202  and  _204
REMARK   80  A    between atoms: _204  and  _205
REMARK   81  A    between atoms: _204  and  _207
REMARK   82  A    between atoms: _207  and  _208
REMARK   83  A    between atoms: _208  and  _209
REMARK   84  A    between atoms: _209  and  _210
REMARK   85  A    between atoms: _210  and  _211
REMARK   86  A    between atoms: _215  and  _217
REMARK   87  A    between atoms: _217  and  _218
REMARK   88  A    between atoms: _221  and  _223
REMARK   89  A    between atoms: _223  and  _224
REMARK   90  A    between atoms: _226  and  _228
REMARK   91  A    between atoms: _228  and  _229
REMARK   92  A    between atoms: _228  and  _231
REMARK   93  A    between atoms: _231  and  _232
REMARK   94  A    between atoms: _237  and  _239
REMARK   95  A    between atoms: _239  and  _240
REMARK   96  A    between atoms: _239  and  _242
REMARK   97  A    between atoms: _242  and  _243
REMARK   98  A    between atoms: _243  and  _244
REMARK   99  A    between atoms: _247  and  _249
REMARK  100  A    between atoms: _249  and  _250
REMARK  101  A    between atoms: _249  and  _252
REMARK  102  A    between atoms: _252  and  _253
REMARK  103  A    between atoms: _253  and  _254
REMARK  104  A    between atoms: _259  and  _261
REMARK  105  A    between atoms: _261  and  _262
REMARK  106  A    between atoms: _261  and  _264
REMARK  107  A    between atoms: _264  and  _265
REMARK  108  A    between atoms: _267  and  _269
REMARK  109  A    between atoms: _269  and  _270
REMARK  110  A    between atoms: _269  and  _272
REMARK  111  A    between atoms: _272  and  _273
REMARK  112  A    between atoms: _279  and  _281
REMARK  113  A    between atoms: _281  and  _282
REMARK  114  A    between atoms: _281  and  _284
REMARK  115  A    between atoms: _284  and  _285
REMARK  116  A    between atoms: _285  and  _286
REMARK  117  A    between atoms: _286  and  _287
REMARK  118  A    between atoms: _296  and  _298
REMARK  119  A    between atoms: _298  and  _299
REMARK  120  A    between atoms: _298  and  _301
REMARK  121  A    between atoms: _304  and  _306
REMARK  122  A    between atoms: _306  and  _307
REMARK  123  A    between atoms: _306  and  _309
REMARK  124  A    between atoms: _309  and  _310
REMARK  125  A    between atoms: _313  and  _315
REMARK  126  A    between atoms: _315  and  _316
REMARK  127  A    between atoms: _315  and  _318
REMARK  128  A    between atoms: _318  and  _319
REMARK  129  A    between atoms: _322  and  _324
REMARK  130  A    between atoms: _324  and  _325
REMARK  131  A    between atoms: _324  and  _327
REMARK  132  A    between atoms: _327  and  _328
REMARK  133  A    between atoms: _331  and  _333
REMARK  134  A    between atoms: _333  and  _334
REMARK  135  A    between atoms: _333  and  _336
REMARK  136  A    between atoms: _336  and  _337
REMARK  137  A    between atoms: _340  and  _342
REMARK  138  A    between atoms: _342  and  _343
REMARK  139  A    between atoms: _342  and  _345
REMARK  140  A    between atoms: _345  and  _346
REMARK  141  A    between atoms: _351  and  _352
REMARK  142  A    between atoms: _354  and  _356
REMARK  143  A    between atoms: _356  and  _357
REMARK  144  A    between atoms: _356  and  _359
REMARK  145  A    between atoms: _359  and  _360
REMARK  146  A    between atoms: _363  and  _365
REMARK  147  A    between atoms: _365  and  _366
REMARK  148  A    between atoms: _365  and  _368
REMARK  149  A    between atoms: _371  and  _373
REMARK  150  A    between atoms: _373  and  _374
REMARK  151  A    between atoms: _373  and  _376
REMARK  152  A    between atoms: _376  and  _377
REMARK  153  A    between atoms: _380  and  _382
REMARK  154  A    between atoms: _382  and  _383
REMARK  155  A    between atoms: _382  and  _385
REMARK  156  A    between atoms: _385  and  _386
REMARK  157  A    between atoms: _388  and  _390
REMARK  158  A    between atoms: _390  and  _391
REMARK  159  A    between atoms: _393  and  _395
REMARK  160  A    between atoms: _395  and  _396
REMARK  161  A    between atoms: _395  and  _398
REMARK  162  A    between atoms: _398  and  _399
REMARK  163  A    between atoms: _399  and  _640
REMARK  164  A    between atoms: _400  and  _402
REMARK  165  A    between atoms: _402  and  _403
REMARK  166  A    between atoms: _402  and  _405
REMARK  167  A    between atoms: _405  and  _406
REMARK  168  A    between atoms: _411  and  _412
REMARK  169  A    between atoms: _414  and  _416
REMARK  170  A    between atoms: _416  and  _417
REMARK  171  A    between atoms: _416  and  _419
REMARK  172  A    between atoms: _419  and  _420
REMARK  173  A    between atoms: _420  and  _421
REMARK  174  A    between atoms: _426  and  _428
REMARK  175  A    between atoms: _428  and  _429
REMARK  176  A    between atoms: _428  and  _431
REMARK  177  A    between atoms: _431  and  _432
REMARK  178  A    between atoms: _437  and  _438
REMARK  179  A    between atoms: _440  and  _442
REMARK  180  A    between atoms: _442  and  _443
REMARK  181  A    between atoms: _442  and  _445
REMARK  182  A    between atoms: _445  and  _446
REMARK  183  A    between atoms: _451  and  _452
REMARK  184  A    between atoms: _454  and  _456
REMARK  185  A    between atoms: _456  and  _457
REMARK  186  A    between atoms: _456  and  _459
REMARK  187  A    between atoms: _459  and  _460
REMARK  188  A    between atoms: _463  and  _465
REMARK  189  A    between atoms: _465  and  _466
REMARK  190  A    between atoms: _469  and  _471
REMARK  191  A    between atoms: _471  and  _472
REMARK  192  A    between atoms: _475  and  _477
REMARK  193  A    between atoms: _477  and  _478
REMARK  194  A    between atoms: _477  and  _480
REMARK  195  A    between atoms: _480  and  _481
REMARK  196  A    between atoms: _484  and  _486
REMARK  197  A    between atoms: _486  and  _487
REMARK  198  A    between atoms: _486  and  _489
REMARK  199  A    between atoms: _489  and  _490
REMARK  200  A    between atoms: _493  and  _495
REMARK  201  A    between atoms: _495  and  _496
REMARK  202  A    between atoms: _495  and  _498
REMARK  203  A    between atoms: _498  and  _499
REMARK  204  A    between atoms: _502  and  _504
REMARK  205  A    between atoms: _504  and  _505
REMARK  206  A    between atoms: _504  and  _507
REMARK  207  A    between atoms: _507  and  _508
REMARK  208  A    between atoms: _508  and  _509
REMARK  209  A    between atoms: _509  and  _510
REMARK  210  A    between atoms: _510  and  _511
REMARK  211  A    between atoms: _515  and  _517
REMARK  212  A    between atoms: _517  and  _518
REMARK  213  A    between atoms: _517  and  _520
REMARK  214  A    between atoms: _520  and  _521
REMARK  215  A    between atoms: _526  and  _528
REMARK  216  A    between atoms: _528  and  _529
REMARK  217  A    between atoms: _528  and  _531
REMARK  218  A    between atoms: _531  and  _532
REMARK  219  A    between atoms: _532  and  _533
REMARK  220  A    between atoms: _533  and  _534
REMARK  221  A    between atoms: _534  and  _535
REMARK  222  A    between atoms: _539  and  _541
REMARK  223  A    between atoms: _541  and  _542
REMARK  224  A    between atoms: _541  and  _544
REMARK  225  A    between atoms: _544  and  _545
REMARK  226  A    between atoms: _555  and  _557
REMARK  227  A    between atoms: _557  and  _558
REMARK  228  A    between atoms: _561  and  _563
REMARK  229  A    between atoms: _563  and  _564
REMARK  230  A    between atoms: _566  and  _568
REMARK  231  A    between atoms: _568  and  _569
REMARK  232  A    between atoms: _568  and  _571
REMARK  233  A    between atoms: _571  and  _572
REMARK  234  A    between atoms: _572  and  _573
REMARK  235  A    between atoms: _576  and  _578
REMARK  236  A    between atoms: _578  and  _579
REMARK  237  A    between atoms: _578  and  _581
REMARK  238  A    between atoms: _581  and  _582
REMARK  239  A    between atoms: _582  and  _583
REMARK  240  A    between atoms: _583  and  _584
REMARK  241  A    between atoms: _593  and  _595
REMARK  242  A    between atoms: _595  and  _596
REMARK  243  A    between atoms: _595  and  _598
REMARK  244  A    between atoms: _598  and  _599
REMARK  245  A    between atoms: _602  and  _604
REMARK  246  A    between atoms: _604  and  _605
REMARK  247  A    between atoms: _604  and  _607
REMARK  248  A    between atoms: _607  and  _608
REMARK  249  A    between atoms: _613  and  _614
REMARK  250  A    between atoms: _616  and  _618
REMARK  251  A    between atoms: _618  and  _619
REMARK  252  A    between atoms: _618  and  _621
REMARK  253  A    between atoms: _621  and  _622
REMARK  254  A    between atoms: _625  and  _627
REMARK  255  A    between atoms: _627  and  _628
REMARK  256  A    between atoms: _627  and  _630
REMARK  257  A    between atoms: _630  and  _631
REMARK  258  A    between atoms: _634  and  _636
REMARK  259  A    between atoms: _636  and  _637
REMARK  260  A    between atoms: _636  and  _639
REMARK  261  A    between atoms: _639  and  _640
REMARK  262  A    between atoms: _641  and  _643
REMARK  263  A    between atoms: _643  and  _644
REMARK  264  A    between atoms: _643  and  _646
REMARK  265  A    between atoms: _649  and  _651
REMARK  266  A    between atoms: _651  and  _652
REMARK  267  A    between atoms: _651  and  _654
REMARK  268  A    between atoms: _654  and  _655
REMARK  269  A    between atoms: _655  and  _656
REMARK  270  A    between atoms: _659  and  _661
REMARK  271  A    between atoms: _661  and  _662
REMARK  272  A    between atoms: _661  and  _664
REMARK  273  A    between atoms: _664  and  _665
REMARK  274  A    between atoms: _675  and  _677
REMARK  275  A    between atoms: _677  and  _678
REMARK  276  A    between atoms: _677  and  _680
REMARK  277  A    between atoms: _680  and  _681
REMARK  278  A    between atoms: _684  and  _686
REMARK  279  A    between atoms: _686  and  _687
REMARK  280  A    between atoms: _686  and  _689
REMARK  281  A    between atoms: _689  and  _690
REMARK  282  A    between atoms: _695  and  _696
REMARK                            x       y       z     vdW  Elec       q    Type
REMARK                         _______ _______ _______ _____ _____    ______ ____
ROOT
ATOM      1  C   TYR A   1      51.684  52.997  -7.852  0.00  0.00    +0.239 C 
ATOM      2  O   TYR A   1      51.324  53.276  -6.709  0.00  0.00    -0.274 OA
ATOM      3  N   GLN A   2      50.856  52.889  -8.880  0.00  0.00    -0.298 N 
ATOM      4  H   GLN A   2      51.252  52.715  -9.826  0.00  0.00    +0.150 HD
ENDROOT
BRANCH   1   5
ATOM      5  CA  TYR A   1      53.137  52.772  -8.193  0.00  0.00    +0.149 C 
BRANCH   5   6
ATOM      6  N   TYR A   1      54.067  53.331  -7.231  0.00  0.00    -0.238 NA
ATOM      7  H   TYR A   1      53.736  53.605  -6.284  0.00  0.00    +0.142 HD
ENDBRANCH   5   6
BRANCH   5   8
ATOM      8  CB  TYR A   1      53.388  51.268  -8.344  0.00  0.00    +0.053 C 
BRANCH   8   9
ATOM      9  CG  TYR A   1      53.592  50.542  -7.030  0.00  0.00    -0.020 A 
ATOM     10  CD2 TYR A   1      52.518  50.244  -6.193  0.00  0.00    -0.001 A 
ATOM     11  CE2 TYR A   1      52.717  49.597  -4.968  0.00  0.00    +0.036 A 
ATOM     12  CZ  TYR A   1      54.004  49.248  -4.578  0.00  0.00    +0.134 A 
ATOM     13  CE1 TYR A   1      55.082  49.536  -5.396  0.00  0.00    +0.036 A 
ATOM     14  CD1 TYR A   1      54.872  50.177  -6.613  0.00  0.00    -0.001 A 
BRANCH  12  15
ATOM     15  OH  TYR A   1      54.223  48.607  -3.378  0.00  0.00    -0.506 OA
ATOM     16  HH  TYR A   1      54.647  47.728  -3.547  0.00  0.00    +0.292 HD
ENDBRANCH  12  15
ENDBRANCH   8   9
ENDBRANCH   5   8
ENDBRANCH   1   5
BRANCH   3  17
ATOM     17  CA  GLN A   2      49.421  53.004  -8.735  0.00  0.00    +0.137 C 
BRANCH  17  18
ATOM     18  C   GLN A   2      48.807  52.330  -9.940  0.00  0.00    +0.227 C 
ATOM     19  O   GLN A   2      49.028  52.750 -11.078  0.00  0.00    -0.286 OA
ENDBRANCH  17  18
BRANCH  17  20
ATOM     20  CB  GLN A   2      48.949  54.452  -8.668  0.00  0.00    +0.037 C 
BRANCH  20  21
ATOM     21  CG  GLN A   2      47.425  54.494  -8.599  0.00  0.00    +0.087 C 
BRANCH  21  22
ATOM     22  CD  GLN A   2      46.862  55.851  -8.283  0.00  0.00    +0.219 C 
ATOM     23  OE1 GLN A   2      46.806  56.260  -7.124  0.00  0.00    -0.275 OA
ATOM     24  NE2 GLN A   2      46.433  56.562  -9.315  0.00  0.00    -0.329 N 
ATOM     25 HE21 GLN A   2      46.028  57.508  -9.163  0.00  0.00    +0.145 HD
ATOM     26 HE22 GLN A   2      46.501  56.174 -10.278  0.00  0.00    +0.145 HD
ENDBRANCH  21  22
ENDBRANCH  20  21
ENDBRANCH  17  20
ENDBRANCH   3  17
TORSDOF 10
REMARK  Name = ../refined-set-2016/1g7q/1g7q_pocket.pdb
REMARK  282 active torsions:
REMARK  status: ('A' for Active; 'I' for Inactive)
REMARK    1  A    between atoms: _1  and  _3
REMARK    2  A    between atoms: _3  and  _4
REMARK    3  A    between atoms: _3  and  _6
REMARK    4  A    between atoms: _6  and  _7
REMARK    5  A    between atoms: _10  and  _12
REMARK    6  A    between atoms: _12  and  _13
REMARK    7  A    between atoms: _12  and  _15
REMARK    8  A    between atoms: _15  and  _16
REMARK    9  A    between atoms: _16  and  _17
REMARK   10  A    between atoms: _17  and  _18
REMARK   11  A    between atoms: _27  and  _29
REMARK   12  A    between atoms: _29  and  _30
REMARK   13  A    between atoms: _29  and  _32
REMARK   14  A    between atoms: _32  and  _33
REMARK   15  A    between atoms: _38  and  _39
REMARK   16  A    between atoms: _41  and  _43
REMARK   17  A    between atoms: _43  and  _44
REMARK   18  A    between atoms: _43  and  _46
REMARK   19  A    between atoms: _46  and  _47
REMARK   20  A    between atoms: _53  and  _55
REMARK   21  A    between atoms: _55  and  _56
REMARK   22  A    between atoms: _55  and  _58
REMARK   23  A    between atoms: _61  and  _63
REMARK   24  A    between atoms: _63  and  _64
REMARK   25  A    between atoms: _63  and  _66
REMARK   26  A    between atoms: _66  and  _67
REMARK   27  A    between atoms: _72  and  _73
REMARK   28  A    between atoms: _75  and  _77
REMARK   29  A    between atoms: _77  and  _78
REMARK   30  A    between atoms: _77  and  _80
REMARK   31  A    between atoms: _80  and  _81
REMARK   32  A    between atoms: _81  and  _82
REMARK   33  A    between atoms: _85  and  _87
REMARK   34  A    between atoms: _87  and  _88
REMARK   35  A    between atoms: _87  and  _90
REMARK   36  A    between atoms: _93  and  _95
REMARK   37  A    between atoms: _95  and  _96
REMARK   38  A    between atoms: _98  and  _100
REMARK   39  A    between atoms: _100  and  _101
REMARK   40  A    between atoms: _100  and  _103
REMARK   41  A    between atoms: _106  and  _108
REMARK   42  A    between atoms: _108  and  _109
REMARK   43  A    between atoms: _108  and  _111
REMARK   44  A    between atoms: _111  and  _112
REMARK   45  A    between atoms: _118  and  _120
REMARK   46  A    between atoms: _120  and  _121
REMARK   47  A    between atoms: _120  and  _123
REMARK   48  A    between atoms: _126  and  _128
REMARK   49  A    between atoms: _128  and  _129
REMARK   50  A    between atoms: _128  and  _131
REMARK   51  A    between atoms: _131  and  _132
REMARK   52  A    between atoms: _137  and  _138
REMARK   53  A    between atoms: _140  and  _142
REMARK   54  A    between atoms: _142  and  _143
REMARK   55  A    between atoms: _142  and  _145
REMARK   56  A    between atoms: _145  and  _146
REMARK   57  A    between atoms: _146  and  _147
REMARK   58  A    between atoms: _149  and  _151
REMARK   59  A    between atoms: _151  and  _152
REMARK   60  A    between atoms: _151  and  _154
REMARK   61  A    between atoms: _154  and  _155
REMARK   62  A    between atoms: _160  and  _161
REMARK   63  A    between atoms: _163  and  _165
REMARK   64  A    between atoms: _165  and  _166
REMARK   65  A    between atoms: _165  and  _168
REMARK   66  A    between atoms: _168  and  _169
REMARK   67  A    between atoms: _169  and  _170
REMARK   68  A    between atoms: _170  and  _171
REMARK   69  A    between atoms: _180  and  _182
REMARK   70  A    between atoms: _182  and  _183
REMARK   71  A    between atoms: _182  and  _185
REMARK   72  A    between atoms: _185  and  _186
REMARK   73  A    between atoms: _186  and  _187
REMARK   74  A    between atoms: _190  and  _192
REMARK   75  A    between atoms: _192  and  _193
REMARK   76  A    between atoms: _192  and  _195
REMARK   77  A    between atoms: _195  and  _196
REMARK   78  A    between atoms: _196  and  _197
REMARK   79  A    between atoms: _202  and  _204
REMARK   80  A    between atoms: _204  and  _205
REMARK   81  A    between atoms: _204  and  _207
REMARK   82  A    between atoms: _207  and  _208
REMARK   83  A    between atoms: _208  and  _209
REMARK   84  A    between atoms: _209  and  _210
REMARK   85  A    between atoms: _210  and  _211
REMARK   86  A    between atoms: _215  and  _217
REMARK   87  A    between atoms: _217  and  _218
REMARK   88  A    between atoms: _221  and  _223
REMARK   89  A    between atoms: _223  and  _224
REMARK   90  A    between atoms: _226  and  _228
REMARK   91  A    between atoms: _228  and  _229
REMARK   92  A    between atoms: _228  and  _231
REMARK   93  A    between atoms: _231  and  _232
REMARK   94  A    between atoms: _237  and  _239
REMARK   95  A    between atoms: _239  and  _240
REMARK   96  A    between atoms: _239  and  _242
REMARK   97  A    between atoms: _242  and  _243
REMARK   98  A    between atoms: _243  and  _244
REMARK   99  A    between atoms: _247  and  _249
REMARK  100  A    between atoms: _249  and  _250
REMARK  101  A    between atoms: _249  and  _252
REMARK  102  A    between atoms: _252  and  _253
REMARK  103  A    between atoms: _253  and  _254
REMARK  104  A    between atoms: _259  and  _261
REMARK  105  A    between atoms: _261  and  _262
REMARK  106  A    between atoms: _261  and  _264
REMARK  107  A    between atoms: _264  and  _265
REMARK  108  A    between atoms: _267  and  _269
REMARK  109  A    between atoms: _269  and  _270
REMARK  110  A    between atoms: _269  and  _272
REMARK  111  A    between atoms: _272  and  _273
REMARK  112  A    between atoms: _279  and  _281
REMARK  113  A    between atoms: _281  and  _282
REMARK  114  A    between atoms: _281  and  _284
REMARK  115  A    between atoms: _284  and  _285
REMARK  116  A    between atoms: _285  and  _286
REMARK  117  A    between atoms: _286  and  _287
REMARK  118  A    between atoms: _296  and  _298
REMARK  119  A    between atoms: _298  and  _299
REMARK  120  A    between atoms: _298  and  _301
REMARK  121  A    between atoms: _304  and  _306
REMARK  122  A    between atoms: _306  and  _307
REMARK  123  A    between atoms: _306  and  _309
REMARK  124  A    between atoms: _309  and  _310
REMARK  125  A    between atoms: _313  and  _315
REMARK  126  A    between atoms: _315  and  _316
REMARK  127  A    between atoms: _315  and  _318
REMARK  128  A    between atoms: _318  and  _319
REMARK  129  A    between atoms: _322  and  _324
REMARK  130  A    between atoms: _324  and  _325
REMARK  131  A    between atoms: _324  and  _327
REMARK  132  A    between atoms: _327  and  _328
REMARK  133  A    between atoms: _331  and  _333
REMARK  134  A    between atoms: _333  and  _334
REMARK  135  A    between atoms: _333  and  _336
REMARK  136  A    between atoms: _336  and  _337
REMARK  137  A    between atoms: _340  and  _342
REMARK  138  A    between atoms: _342  and  _343
REMARK  139  A    between atoms: _342  and  _345
REMARK  140  A    between atoms: _345  and  _346
REMARK  141  A    between atoms: _351  and  _352
REMARK  142  A    between atoms: _354  and  _356
REMARK  143  A    between atoms: _356  and  _357
REMARK  144  A    between atoms: _356  and  _359
REMARK  145  A    between atoms: _359  and  _360
REMARK  146  A    between atoms: _363  and  _365
REMARK  147  A    between atoms: _365  and  _366
REMARK  148  A    between atoms: _365  and  _368
REMARK  149  A    between atoms: _371  and  _373
REMARK  150  A    between atoms: _373  and  _374
REMARK  151  A    between atoms: _373  and  _376
REMARK  152  A    between atoms: _376  and  _377
REMARK  153  A    between atoms: _380  and  _382
REMARK  154  A    between atoms: _382  and  _383
REMARK  155  A    between atoms: _382  and  _385
REMARK  156  A    between atoms: _385  and  _386
REMARK  157  A    between atoms: _388  and  _390
REMARK  158  A    between atoms: _390  and  _391
REMARK  159  A    between atoms: _393  and  _395
REMARK  160  A    between atoms: _395  and  _396
REMARK  161  A    between atoms: _395  and  _398
REMARK  162  A    between atoms: _398  and  _399
REMARK  163  A    between atoms: _399  and  _640
REMARK  164  A    between atoms: _400  and  _402
REMARK  165  A    between atoms: _402  and  _403
REMARK  166  A    between atoms: _402  and  _405
REMARK  167  A    between atoms: _405  and  _406
REMARK  168  A    between atoms: _411  and  _412
REMARK  169  A    between atoms: _414  and  _416
REMARK  170  A    between atoms: _416  and  _417
REMARK  171  A    between atoms: _416  and  _419
REMARK  172  A    between atoms: _419  and  _420
REMARK  173  A    between atoms: _420  and  _421
REMARK  174  A    between atoms: _426  and  _428
REMARK  175  A    between atoms: _428  and  _429
REMARK  176  A    between atoms: _428  and  _431
REMARK  177  A    between atoms: _431  and  _432
REMARK  178  A    between atoms: _437  and  _438
REMARK  179  A    between atoms: _440  and  _442
REMARK  180  A    between atoms: _442  and  _443
REMARK  181  A    between atoms: _442  and  _445
REMARK  182  A    between atoms: _445  and  _446
REMARK  183  A    between atoms: _451  and  _452
REMARK  184  A    between atoms: _454  and  _456
REMARK  185  A    between atoms: _456  and  _457
REMARK  186  A    between atoms: _456  and  _459
REMARK  187  A    between atoms: _459  and  _460
REMARK  188  A    between atoms: _463  and  _465
REMARK  189  A    between atoms: _465  and  _466
REMARK  190  A    between atoms: _469  and  _471
REMARK  191  A    between atoms: _471  and  _472
REMARK  192  A    between atoms: _475  and  _477
REMARK  193  A    between atoms: _477  and  _478
REMARK  194  A    between atoms: _477  and  _480
REMARK  195  A    between atoms: _480  and  _481
REMARK  196  A    between atoms: _484  and  _486
REMARK  197  A    between atoms: _486  and  _487
REMARK  198  A    between atoms: _486  and  _489
REMARK  199  A    between atoms: _489  and  _490
REMARK  200  A    between atoms: _493  and  _495
REMARK  201  A    between atoms: _495  and  _496
REMARK  202  A    between atoms: _495  and  _498
REMARK  203  A    between atoms: _498  and  _499
REMARK  204  A    between atoms: _502  and  _504
REMARK  205  A    between atoms: _504  and  _505
REMARK  206  A    between atoms: _504  and  _507
REMARK  207  A    between atoms: _507  and  _508
REMARK  208  A    between atoms: _508  and  _509
REMARK  209  A    between atoms: _509  and  _510
REMARK  210  A    between atoms: _510  and  _511
REMARK  211  A    between atoms: _515  and  _517
REMARK  212  A    between atoms: _517  and  _518
REMARK  213  A    between atoms: _517  and  _520
REMARK  214  A    between atoms: _520  and  _521
REMARK  215  A    between atoms: _526  and  _528
REMARK  216  A    between atoms: _528  and  _529
REMARK  217  A    between atoms: _528  and  _531
REMARK  218  A    between atoms: _531  and  _532
REMARK  219  A    between atoms: _532  and  _533
REMARK  220  A    between atoms: _533  and  _534
REMARK  221  A    between atoms: _534  and  _535
REMARK  222  A    between atoms: _539  and  _541
REMARK  223  A    between atoms: _541  and  _542
REMARK  224  A    between atoms: _541  and  _544
REMARK  225  A    between atoms: _544  and  _545
REMARK  226  A    between atoms: _555  and  _557
REMARK  227  A    between atoms: _557  and  _558
REMARK  228  A    between atoms: _561  and  _563
REMARK  229  A    between atoms: _563  and  _564
REMARK  230  A    between atoms: _566  and  _568
REMARK  231  A    between atoms: _568  and  _569
REMARK  232  A    between atoms: _568  and  _571
REMARK  233  A    between atoms: _571  and  _572
REMARK  234  A    between atoms: _572  and  _573
REMARK  235  A    between atoms: _576  and  _578
REMARK  236  A    between atoms: _578  and  _579
REMARK  237  A    between atoms: _578  and  _581
REMARK  238  A    between atoms: _581  and  _582
REMARK  239  A    between atoms: _582  and  _583
REMARK  240  A    between atoms: _583  and  _584
REMARK  241  A    between atoms: _593  and  _595
REMARK  242  A    between atoms: _595  and  _596
REMARK  243  A    between atoms: _595  and  _598
REMARK  244  A    between atoms: _598  and  _599
REMARK  245  A    between atoms: _602  and  _604
REMARK  246  A    between atoms: _604  and  _605
REMARK  247  A    between atoms: _604  and  _607
REMARK  248  A    between atoms: _607  and  _608
REMARK  249  A    between atoms: _613  and  _614
REMARK  250  A    between atoms: _616  and  _618
REMARK  251  A    between atoms: _618  and  _619
REMARK  252  A    between atoms: _618  and  _621
REMARK  253  A    between atoms: _621  and  _622
REMARK  254  A    between atoms: _625  and  _627
REMARK  255  A    between atoms: _627  and  _628
REMARK  256  A    between atoms: _627  and  _630
REMARK  257  A    between atoms: _630  and  _631
REMARK  258  A    between atoms: _634  and  _636
REMARK  259  A    between atoms: _636  and  _637
REMARK  260  A    between atoms: _636  and  _639
REMARK  261  A    between atoms: _639  and  _640
REMARK  262  A    between atoms: _641  and  _643
REMARK  263  A    between atoms: _643  and  _644
REMARK  264  A    between atoms: _643  and  _646
REMARK  265  A    between atoms: _649  and  _651
REMARK  266  A    between atoms: _651  and  _652
REMARK  267  A    between atoms: _651  and  _654
REMARK  268  A    between atoms: _654  and  _655
REMARK  269  A    between atoms: _655  and  _656
REMARK  270  A    between atoms: _659  and  _661
REMARK  271  A    between atoms: _661  and  _662
REMARK  272  A    between atoms: _661  and  _664
REMARK  273  A    between atoms: _664  and  _665
REMARK  274  A    between atoms: _675  and  _677
REMARK  275  A    between atoms: _677  and  _678
REMARK  276  A    between atoms: _677  and  _680
REMARK  277  A    between atoms: _680  and  _681
REMARK  278  A    between atoms: _684  and  _686
REMARK  279  A    between atoms: _686  and  _687
REMARK  280  A    between atoms: _686  and  _689
REMARK  281  A    between atoms: _689  and  _690
REMARK  282  A    between atoms: _695  and  _696
REMARK                            x       y       z     vdW  Elec       q    Type
REMARK                         _______ _______ _______ _____ _____    ______ ____
ROOT
ATOM      1  CG  TYR A   1      42.804  52.731 -11.357  0.00  0.00    -0.020 A 
ATOM      2  CD2 TYR A   1      43.892  53.500 -10.955  0.00  0.00    -0.001 A 
ATOM      3  CE2 TYR A   1      43.705  54.706 -10.271  0.00  0.00    +0.036 A 
ATOM      4  CZ  TYR A   1      42.417  55.136  -9.988  0.00  0.00    +0.134 A 
ATOM      5  CE1 TYR A   1      41.323  54.379 -10.374  0.00  0.00    +0.036 A 
ATOM      6  CD1 TYR A   1      41.521  53.187 -11.052  0.00  0.00    -0.001 A 
ENDROOT
BRANCH   4   7
ATOM      7  OH  TYR A   1      42.208  56.332  -9.337  0.00  0.00    -0.506 OA
ATOM      8  HH  TYR A   1      41.682  56.936  -9.919  0.00  0.00    +0.292 HD
ENDBRANCH   4   7
BRANCH   1   9
ATOM      9  CB  TYR A   1      42.988  51.479 -12.167  0.00  0.00    +0.051 C 
BRANCH   9  10
ATOM     10  CA  TYR A   1      43.680  50.301 -11.480  0.00  0.00    +0.137 C 
BRANCH  10  11
ATOM     11  N   TYR A   1      45.135  50.443 -11.531  0.00  0.00    -0.239 NA
ATOM     12  H   TYR A   1      45.576  50.638 -12.453  0.00  0.00    +0.142 HD
ENDBRANCH  10  11
BRANCH  10  13
ATOM     13  C   TYR A   1      43.212  49.062 -12.221  0.00  0.00    +0.224 C 
ATOM     14  O   TYR A   1      43.822  48.649 -13.207  0.00  0.00    -0.287 OA
ENDBRANCH  10  13
ENDBRANCH   9  10
ENDBRANCH   1   9
TORSDOF 5
REMARK  Name = ../refined-set-2016/1g7q/1g7q_pocket.pdb
REMARK  282 active torsions:
REMARK  status: ('A' for Active; 'I' for Inactive)
REMARK    1  A    between atoms: _1  and  _3
REMARK    2  A    between atoms: _3  and  _4
REMARK    3  A    between atoms: _3  and  _6
REMARK    4  A    between atoms: _6  and  _7
REMARK    5  A    between atoms: _10  and  _12
REMARK    6  A    between atoms: _12  and  _13
REMARK    7  A    between atoms: _12  and  _15
REMARK    8  A    between atoms: _15  and  _16
REMARK    9  A    between atoms: _16  and  _17
REMARK   10  A    between atoms: _17  and  _18
REMARK   11  A    between atoms: _27  and  _29
REMARK   12  A    between atoms: _29  and  _30
REMARK   13  A    between atoms: _29  and  _32
REMARK   14  A    between atoms: _32  and  _33
REMARK   15  A    between atoms: _38  and  _39
REMARK   16  A    between atoms: _41  and  _43
REMARK   17  A    between atoms: _43  and  _44
REMARK   18  A    between atoms: _43  and  _46
REMARK   19  A    between atoms: _46  and  _47
REMARK   20  A    between atoms: _53  and  _55
REMARK   21  A    between atoms: _55  and  _56
REMARK   22  A    between atoms: _55  and  _58
REMARK   23  A    between atoms: _61  and  _63
REMARK   24  A    between atoms: _63  and  _64
REMARK   25  A    between atoms: _63  and  _66
REMARK   26  A    between atoms: _66  and  _67
REMARK   27  A    between atoms: _72  and  _73
REMARK   28  A    between atoms: _75  and  _77
REMARK   29  A    between atoms: _77  and  _78
REMARK   30  A    between atoms: _77  and  _80
REMARK   31  A    between atoms: _80  and  _81
REMARK   32  A    between atoms: _81  and  _82
REMARK   33  A    between atoms: _85  and  _87
REMARK   34  A    between atoms: _87  and  _88
REMARK   35  A    between atoms: _87  and  _90
REMARK   36  A    between atoms: _93  and  _95
REMARK   37  A    between atoms: _95  and  _96
REMARK   38  A    between atoms: _98  and  _100
REMARK   39  A    between atoms: _100  and  _101
REMARK   40  A    between atoms: _100  and  _103
REMARK   41  A    between atoms: _106  and  _108
REMARK   42  A    between atoms: _108  and  _109
REMARK   43  A    between atoms: _108  and  _111
REMARK   44  A    between atoms: _111  and  _112
REMARK   45  A    between atoms: _118  and  _120
REMARK   46  A    between atoms: _120  and  _121
REMARK   47  A    between atoms: _120  and  _123
REMARK   48  A    between atoms: _126  and  _128
REMARK   49  A    between atoms: _128  and  _129
REMARK   50  A    between atoms: _128  and  _131
REMARK   51  A    between atoms: _131  and  _132
REMARK   52  A    between atoms: _137  and  _138
REMARK   53  A    between atoms: _140  and  _142
REMARK   54  A    between atoms: _142  and  _143
REMARK   55  A    between atoms: _142  and  _145
REMARK   56  A    between atoms: _145  and  _146
REMARK   57  A    between atoms: _146  and  _147
REMARK   58  A    between atoms: _149  and  _151
REMARK   59  A    between atoms: _151  and  _152
REMARK   60  A    between atoms: _151  and  _154
REMARK   61  A    between atoms: _154  and  _155
REMARK   62  A    between atoms: _160  and  _161
REMARK   63  A    between atoms: _163  and  _165
REMARK   64  A    between atoms: _165  and  _166
REMARK   65  A    between atoms: _165  and  _168
REMARK   66  A    between atoms: _168  and  _169
REMARK   67  A    between atoms: _169  and  _170
REMARK   68  A    between atoms: _170  and  _171
REMARK   69  A    between atoms: _180  and  _182
REMARK   70  A    between atoms: _182  and  _183
REMARK   71  A    between atoms: _182  and  _185
REMARK   72  A    between atoms: _185  and  _186
REMARK   73  A    between atoms: _186  and  _187
REMARK   74  A    between atoms: _190  and  _192
REMARK   75  A    between atoms: _192  and  _193
REMARK   76  A    between atoms: _192  and  _195
REMARK   77  A    between atoms: _195  and  _196
REMARK   78  A    between atoms: _196  and  _197
REMARK   79  A    between atoms: _202  and  _204
REMARK   80  A    between atoms: _204  and  _205
REMARK   81  A    between atoms: _204  and  _207
REMARK   82  A    between atoms: _207  and  _208
REMARK   83  A    between atoms: _208  and  _209
REMARK   84  A    between atoms: _209  and  _210
REMARK   85  A    between atoms: _210  and  _211
REMARK   86  A    between atoms: _215  and  _217
REMARK   87  A    between atoms: _217  and  _218
REMARK   88  A    between atoms: _221  and  _223
REMARK   89  A    between atoms: _223  and  _224
REMARK   90  A    between atoms: _226  and  _228
REMARK   91  A    between atoms: _228  and  _229
REMARK   92  A    between atoms: _228  and  _231
REMARK   93  A    between atoms: _231  and  _232
REMARK   94  A    between atoms: _237  and  _239
REMARK   95  A    between atoms: _239  and  _240
REMARK   96  A    between atoms: _239  and  _242
REMARK   97  A    between atoms: _242  and  _243
REMARK   98  A    between atoms: _243  and  _244
REMARK   99  A    between atoms: _247  and  _249
REMARK  100  A    between atoms: _249  and  _250
REMARK  101  A    between atoms: _249  and  _252
REMARK  102  A    between atoms: _252  and  _253
REMARK  103  A    between atoms: _253  and  _254
REMARK  104  A    between atoms: _259  and  _261
REMARK  105  A    between atoms: _261  and  _262
REMARK  106  A    between atoms: _261  and  _264
REMARK  107  A    between atoms: _264  and  _265
REMARK  108  A    between atoms: _267  and  _269
REMARK  109  A    between atoms: _269  and  _270
REMARK  110  A    between atoms: _269  and  _272
REMARK  111  A    between atoms: _272  and  _273
REMARK  112  A    between atoms: _279  and  _281
REMARK  113  A    between atoms: _281  and  _282
REMARK  114  A    between atoms: _281  and  _284
REMARK  115  A    between atoms: _284  and  _285
REMARK  116  A    between atoms: _285  and  _286
REMARK  117  A    between atoms: _286  and  _287
REMARK  118  A    between atoms: _296  and  _298
REMARK  119  A    between atoms: _298  and  _299
REMARK  120  A    between atoms: _298  and  _301
REMARK  121  A    between atoms: _304  and  _306
REMARK  122  A    between atoms: _306  and  _307
REMARK  123  A    between atoms: _306  and  _309
REMARK  124  A    between atoms: _309  and  _310
REMARK  125  A    between atoms: _313  and  _315
REMARK  126  A    between atoms: _315  and  _316
REMARK  127  A    between atoms: _315  and  _318
REMARK  128  A    between atoms: _318  and  _319
REMARK  129  A    between atoms: _322  and  _324
REMARK  130  A    between atoms: _324  and  _325
REMARK  131  A    between atoms: _324  and  _327
REMARK  132  A    between atoms: _327  and  _328
REMARK  133  A    between atoms: _331  and  _333
REMARK  134  A    between atoms: _333  and  _334
REMARK  135  A    between atoms: _333  and  _336
REMARK  136  A    between atoms: _336  and  _337
REMARK  137  A    between atoms: _340  and  _342
REMARK  138  A    between atoms: _342  and  _343
REMARK  139  A    between atoms: _342  and  _345
REMARK  140  A    between atoms: _345  and  _346
REMARK  141  A    between atoms: _351  and  _352
REMARK  142  A    between atoms: _354  and  _356
REMARK  143  A    between atoms: _356  and  _357
REMARK  144  A    between atoms: _356  and  _359
REMARK  145  A    between atoms: _359  and  _360
REMARK  146  A    between atoms: _363  and  _365
REMARK  147  A    between atoms: _365  and  _366
REMARK  148  A    between atoms: _365  and  _368
REMARK  149  A    between atoms: _371  and  _373
REMARK  150  A    between atoms: _373  and  _374
REMARK  151  A    between atoms: _373  and  _376
REMARK  152  A    between atoms: _376  and  _377
REMARK  153  A    between atoms: _380  and  _382
REMARK  154  A    between atoms: _382  and  _383
REMARK  155  A    between atoms: _382  and  _385
REMARK  156  A    between atoms: _385  and  _386
REMARK  157  A    between atoms: _388  and  _390
REMARK  158  A    between atoms: _390  and  _391
REMARK  159  A    between atoms: _393  and  _395
REMARK  160  A    between atoms: _395  and  _396
REMARK  161  A    between atoms: _395  and  _398
REMARK  162  A    between atoms: _398  and  _399
REMARK  163  A    between atoms: _399  and  _640
REMARK  164  A    between atoms: _400  and  _402
REMARK  165  A    between atoms: _402  and  _403
REMARK  166  A    between atoms: _402  and  _405
REMARK  167  A    between atoms: _405  and  _406
REMARK  168  A    between atoms: _411  and  _412
REMARK  169  A    between atoms: _414  and  _416
REMARK  170  A    between atoms: _416  and  _417
REMARK  171  A    between atoms: _416  and  _419
REMARK  172  A    between atoms: _419  and  _420
REMARK  173  A    between atoms: _420  and  _421
REMARK  174  A    between atoms: _426  and  _428
REMARK  175  A    between atoms: _428  and  _429
REMARK  176  A    between atoms: _428  and  _431
REMARK  177  A    between atoms: _431  and  _432
REMARK  178  A    between atoms: _437  and  _438
REMARK  179  A    between atoms: _440  and  _442
REMARK  180  A    between atoms: _442  and  _443
REMARK  181  A    between atoms: _442  and  _445
REMARK  182  A    between atoms: _445  and  _446
REMARK  183  A    between atoms: _451  and  _452
REMARK  184  A    between atoms: _454  and  _456
REMARK  185  A    between atoms: _456  and  _457
REMARK  186  A    between atoms: _456  and  _459
REMARK  187  A    between atoms: _459  and  _460
REMARK  188  A    between atoms: _463  and  _465
REMARK  189  A    between atoms: _465  and  _466
REMARK  190  A    between atoms: _469  and  _471
REMARK  191  A    between atoms: _471  and  _472
REMARK  192  A    between atoms: _475  and  _477
REMARK  193  A    between atoms: _477  and  _478
REMARK  194  A    between atoms: _477  and  _480
REMARK  195  A    between atoms: _480  and  _481
REMARK  196  A    between atoms: _484  and  _486
REMARK  197  A    between atoms: _486  and  _487
REMARK  198  A    between atoms: _486  and  _489
REMARK  199  A    between atoms: _489  and  _490
REMARK  200  A    between atoms: _493  and  _495
REMARK  201  A    between atoms: _495  and  _496
REMARK  202  A    between atoms: _495  and  _498
REMARK  203  A    between atoms: _498  and  _499
REMARK  204  A    between atoms: _502  and  _504
REMARK  205  A    between atoms: _504  and  _505
REMARK  206  A    between atoms: _504  and  _507
REMARK  207  A    between atoms: _507  and  _508
REMARK  208  A    between atoms: _508  and  _509
REMARK  209  A    between atoms: _509  and  _510
REMARK  210  A    between atoms: _510  and  _511
REMARK  211  A    between atoms: _515  and  _517
REMARK  212  A    between atoms: _517  and  _518
REMARK  213  A    between atoms: _517  and  _520
REMARK  214  A    between atoms: _520  and  _521
REMARK  215  A    between atoms: _526  and  _528
REMARK  216  A    between atoms: _528  and  _529
REMARK  217  A    between atoms: _528  and  _531
REMARK  218  A    between atoms: _531  and  _532
REMARK  219  A    between atoms: _532  and  _533
REMARK  220  A    between atoms: _533  and  _534
REMARK  221  A    between atoms: _534  and  _535
REMARK  222  A    between atoms: _539  and  _541
REMARK  223  A    between atoms: _541  and  _542
REMARK  224  A    between atoms: _541  and  _544
REMARK  225  A    between atoms: _544  and  _545
REMARK  226  A    between atoms: _555  and  _557
REMARK  227  A    between atoms: _557  and  _558
REMARK  228  A    between atoms: _561  and  _563
REMARK  229  A    between atoms: _563  and  _564
REMARK  230  A    between atoms: _566  and  _568
REMARK  231  A    between atoms: _568  and  _569
REMARK  232  A    between atoms: _568  and  _571
REMARK  233  A    between atoms: _571  and  _572
REMARK  234  A    between atoms: _572  and  _573
REMARK  235  A    between atoms: _576  and  _578
REMARK  236  A    between atoms: _578  and  _579
REMARK  237  A    between atoms: _578  and  _581
REMARK  238  A    between atoms: _581  and  _582
REMARK  239  A    between atoms: _582  and  _583
REMARK  240  A    between atoms: _583  and  _584
REMARK  241  A    between atoms: _593  and  _595
REMARK  242  A    between atoms: _595  and  _596
REMARK  243  A    between atoms: _595  and  _598
REMARK  244  A    between atoms: _598  and  _599
REMARK  245  A    between atoms: _602  and  _604
REMARK  246  A    between atoms: _604  and  _605
REMARK  247  A    between atoms: _604  and  _607
REMARK  248  A    between atoms: _607  and  _608
REMARK  249  A    between atoms: _613  and  _614
REMARK  250  A    between atoms: _616  and  _618
REMARK  251  A    between atoms: _618  and  _619
REMARK  252  A    between atoms: _618  and  _621
REMARK  253  A    between atoms: _621  and  _622
REMARK  254  A    between atoms: _625  and  _627
REMARK  255  A    between atoms: _627  and  _628
REMARK  256  A    between atoms: _627  and  _630
REMARK  257  A    between atoms: _630  and  _631
REMARK  258  A    between atoms: _634  and  _636
REMARK  259  A    between atoms: _636  and  _637
REMARK  260  A    between atoms: _636  and  _639
REMARK  261  A    between atoms: _639  and  _640
REMARK  262  A    between atoms: _641  and  _643
REMARK  263  A    between atoms: _643  and  _644
REMARK  264  A    between atoms: _643  and  _646
REMARK  265  A    between atoms: _649  and  _651
REMARK  266  A    between atoms: _651  and  _652
REMARK  267  A    between atoms: _651  and  _654
REMARK  268  A    between atoms: _654  and  _655
REMARK  269  A    between atoms: _655  and  _656
REMARK  270  A    between atoms: _659  and  _661
REMARK  271  A    between atoms: _661  and  _662
REMARK  272  A    between atoms: _661  and  _664
REMARK  273  A    between atoms: _664  and  _665
REMARK  274  A    between atoms: _675  and  _677
REMARK  275  A    between atoms: _677  and  _678
REMARK  276  A    between atoms: _677  and  _680
REMARK  277  A    between atoms: _680  and  _681
REMARK  278  A    between atoms: _684  and  _686
REMARK  279  A    between atoms: _686  and  _687
REMARK  280  A    between atoms: _686  and  _689
REMARK  281  A    between atoms: _689  and  _690
REMARK  282  A    between atoms: _695  and  _696
REMARK                            x       y       z     vdW  Elec       q    Type
REMARK                         _______ _______ _______ _____ _____    ______ ____
ROOT
ATOM      1  CA  TYR A   1      42.425  49.145 -16.543  0.00  0.00    +0.149 C 
ENDROOT
BRANCH   1   2
ATOM      2  C   TYR A   1      43.477  50.169 -16.962  0.00  0.00    +0.239 C 
ATOM      3  N   ILE A   2      44.100  50.814 -15.982  0.00  0.00    -0.298 N 
ATOM      4  H   ILE A   2      43.842  50.612 -14.995  0.00  0.00    +0.150 HD
ATOM      5  O   TYR A   1      43.733  50.364 -18.151  0.00  0.00    -0.274 OA
BRANCH   3   6
ATOM      6  CA  ILE A   2      45.137  51.799 -16.261  0.00  0.00    +0.137 C 
BRANCH   6   7
ATOM      7  C   ILE A   2      46.170  51.739 -15.138  0.00  0.00    +0.227 C 
ATOM      8  O   ILE A   2      45.847  51.387 -14.004  0.00  0.00    -0.286 OA
ENDBRANCH   6   7
BRANCH   6   9
ATOM      9  CB  ILE A   2      44.538  53.232 -16.359  0.00  0.00    +0.026 C 
ATOM     10  CG2 ILE A   2      44.145  53.730 -14.975  0.00  0.00    +0.002 C 
BRANCH   9  11
ATOM     11  CG1 ILE A   2      45.544  54.190 -17.005  0.00  0.00    +0.002 C 
ATOM     12  CD1 ILE A   2      44.934  55.531 -17.422  0.00  0.00    +0.000 C 
ENDBRANCH   9  11
ENDBRANCH   6   9
ENDBRANCH   3   6
ENDBRANCH   1   2
BRANCH   1  13
ATOM     13  N   TYR A   1      43.127  48.018 -15.943  0.00  0.00    -0.238 NA
ATOM     14  H   TYR A   1      43.647  48.160 -15.054  0.00  0.00    +0.142 HD
ENDBRANCH   1  13
BRANCH   1  15
ATOM     15  CB  TYR A   1      41.450  49.771 -15.540  0.00  0.00    +0.053 C 
BRANCH  15  16
ATOM     16  CG  TYR A   1      40.621  50.889 -16.133  0.00  0.00    -0.020 A 
ATOM     17  CD2 TYR A   1      40.876  52.221 -15.804  0.00  0.00    -0.001 A 
ATOM     18  CE2 TYR A   1      40.150  53.257 -16.387  0.00  0.00    +0.036 A 
ATOM     19  CZ  TYR A   1      39.154  52.960 -17.310  0.00  0.00    +0.134 A 
ATOM     20  CE1 TYR A   1      38.881  51.643 -17.649  0.00  0.00    +0.036 A 
ATOM     21  CD1 TYR A   1      39.613  50.618 -17.059  0.00  0.00    -0.001 A 
BRANCH  19  22
ATOM     22  OH  TYR A   1      38.436  53.968 -17.907  0.00  0.00    -0.506 OA
ATOM     23  HH  TYR A   1      39.053  54.559 -18.407  0.00  0.00    +0.292 HD
ENDBRANCH  19  22
ENDBRANCH  15  16
ENDBRANCH   1  15
TORSDOF 9
REMARK  Name = ../refined-set-2016/1g7q/1g7q_pocket.pdb
REMARK  282 active torsions:
REMARK  status: ('A' for Active; 'I' for Inactive)
REMARK    1  A    between atoms: _1  and  _3
REMARK    2  A    between atoms: _3  and  _4
REMARK    3  A    between atoms: _3  and  _6
REMARK    4  A    between atoms: _6  and  _7
REMARK    5  A    between atoms: _10  and  _12
REMARK    6  A    between atoms: _12  and  _13
REMARK    7  A    between atoms: _12  and  _15
REMARK    8  A    between atoms: _15  and  _16
REMARK    9  A    between atoms: _16  and  _17
REMARK   10  A    between atoms: _17  and  _18
REMARK   11  A    between atoms: _27  and  _29
REMARK   12  A    between atoms: _29  and  _30
REMARK   13  A    between atoms: _29  and  _32
REMARK   14  A    between atoms: _32  and  _33
REMARK   15  A    between atoms: _38  and  _39
REMARK   16  A    between atoms: _41  and  _43
REMARK   17  A    between atoms: _43  and  _44
REMARK   18  A    between atoms: _43  and  _46
REMARK   19  A    between atoms: _46  and  _47
REMARK   20  A    between atoms: _53  and  _55
REMARK   21  A    between atoms: _55  and  _56
REMARK   22  A    between atoms: _55  and  _58
REMARK   23  A    between atoms: _61  and  _63
REMARK   24  A    between atoms: _63  and  _64
REMARK   25  A    between atoms: _63  and  _66
REMARK   26  A    between atoms: _66  and  _67
REMARK   27  A    between atoms: _72  and  _73
REMARK   28  A    between atoms: _75  and  _77
REMARK   29  A    between atoms: _77  and  _78
REMARK   30  A    between atoms: _77  and  _80
REMARK   31  A    between atoms: _80  and  _81
REMARK   32  A    between atoms: _81  and  _82
REMARK   33  A    between atoms: _85  and  _87
REMARK   34  A    between atoms: _87  and  _88
REMARK   35  A    between atoms: _87  and  _90
REMARK   36  A    between atoms: _93  and  _95
REMARK   37  A    between atoms: _95  and  _96
REMARK   38  A    between atoms: _98  and  _100
REMARK   39  A    between atoms: _100  and  _101
REMARK   40  A    between atoms: _100  and  _103
REMARK   41  A    between atoms: _106  and  _108
REMARK   42  A    between atoms: _108  and  _109
REMARK   43  A    between atoms: _108  and  _111
REMARK   44  A    between atoms: _111  and  _112
REMARK   45  A    between atoms: _118  and  _120
REMARK   46  A    between atoms: _120  and  _121
REMARK   47  A    between atoms: _120  and  _123
REMARK   48  A    between atoms: _126  and  _128
REMARK   49  A    between atoms: _128  and  _129
REMARK   50  A    between atoms: _128  and  _131
REMARK   51  A    between atoms: _131  and  _132
REMARK   52  A    between atoms: _137  and  _138
REMARK   53  A    between atoms: _140  and  _142
REMARK   54  A    between atoms: _142  and  _143
REMARK   55  A    between atoms: _142  and  _145
REMARK   56  A    between atoms: _145  and  _146
REMARK   57  A    between atoms: _146  and  _147
REMARK   58  A    between atoms: _149  and  _151
REMARK   59  A    between atoms: _151  and  _152
REMARK   60  A    between atoms: _151  and  _154
REMARK   61  A    between atoms: _154  and  _155
REMARK   62  A    between atoms: _160  and  _161
REMARK   63  A    between atoms: _163  and  _165
REMARK   64  A    between atoms: _165  and  _166
REMARK   65  A    between atoms: _165  and  _168
REMARK   66  A    between atoms: _168  and  _169
REMARK   67  A    between atoms: _169  and  _170
REMARK   68  A    between atoms: _170  and  _171
REMARK   69  A    between atoms: _180  and  _182
REMARK   70  A    between atoms: _182  and  _183
REMARK   71  A    between atoms: _182  and  _185
REMARK   72  A    between atoms: _185  and  _186
REMARK   73  A    between atoms: _186  and  _187
REMARK   74  A    between atoms: _190  and  _192
REMARK   75  A    between atoms: _192  and  _193
REMARK   76  A    between atoms: _192  and  _195
REMARK   77  A    between atoms: _195  and  _196
REMARK   78  A    between atoms: _196  and  _197
REMARK   79  A    between atoms: _202  and  _204
REMARK   80  A    between atoms: _204  and  _205
REMARK   81  A    between atoms: _204  and  _207
REMARK   82  A    between atoms: _207  and  _208
REMARK   83  A    between atoms: _208  and  _209
REMARK   84  A    between atoms: _209  and  _210
REMARK   85  A    between atoms: _210  and  _211
REMARK   86  A    between atoms: _215  and  _217
REMARK   87  A    between atoms: _217  and  _218
REMARK   88  A    between atoms: _221  and  _223
REMARK   89  A    between atoms: _223  and  _224
REMARK   90  A    between atoms: _226  and  _228
REMARK   91  A    between atoms: _228  and  _229
REMARK   92  A    between atoms: _228  and  _231
REMARK   93  A    between atoms: _231  and  _232
REMARK   94  A    between atoms: _237  and  _239
REMARK   95  A    between atoms: _239  and  _240
REMARK   96  A    between atoms: _239  and  _242
REMARK   97  A    between atoms: _242  and  _243
REMARK   98  A    between atoms: _243  and  _244
REMARK   99  A    between atoms: _247  and  _249
REMARK  100  A    between atoms: _249  and  _250
REMARK  101  A    between atoms: _249  and  _252
REMARK  102  A    between atoms: _252  and  _253
REMARK  103  A    between atoms: _253  and  _254
REMARK  104  A    between atoms: _259  and  _261
REMARK  105  A    between atoms: _261  and  _262
REMARK  106  A    between atoms: _261  and  _264
REMARK  107  A    between atoms: _264  and  _265
REMARK  108  A    between atoms: _267  and  _269
REMARK  109  A    between atoms: _269  and  _270
REMARK  110  A    between atoms: _269  and  _272
REMARK  111  A    between atoms: _272  and  _273
REMARK  112  A    between atoms: _279  and  _281
REMARK  113  A    between atoms: _281  and  _282
REMARK  114  A    between atoms: _281  and  _284
REMARK  115  A    between atoms: _284  and  _285
REMARK  116  A    between atoms: _285  and  _286
REMARK  117  A    between atoms: _286  and  _287
REMARK  118  A    between atoms: _296  and  _298
REMARK  119  A    between atoms: _298  and  _299
REMARK  120  A    between atoms: _298  and  _301
REMARK  121  A    between atoms: _304  and  _306
REMARK  122  A    between atoms: _306  and  _307
REMARK  123  A    between atoms: _306  and  _309
REMARK  124  A    between atoms: _309  and  _310
REMARK  125  A    between atoms: _313  and  _315
REMARK  126  A    between atoms: _315  and  _316
REMARK  127  A    between atoms: _315  and  _318
REMARK  128  A    between atoms: _318  and  _319
REMARK  129  A    between atoms: _322  and  _324
REMARK  130  A    between atoms: _324  and  _325
REMARK  131  A    between atoms: _324  and  _327
REMARK  132  A    between atoms: _327  and  _328
REMARK  133  A    between atoms: _331  and  _333
REMARK  134  A    between atoms: _333  and  _334
REMARK  135  A    between atoms: _333  and  _336
REMARK  136  A    between atoms: _336  and  _337
REMARK  137  A    between atoms: _340  and  _342
REMARK  138  A    between atoms: _342  and  _343
REMARK  139  A    between atoms: _342  and  _345
REMARK  140  A    between atoms: _345  and  _346
REMARK  141  A    between atoms: _351  and  _352
REMARK  142  A    between atoms: _354  and  _356
REMARK  143  A    between atoms: _356  and  _357
REMARK  144  A    between atoms: _356  and  _359
REMARK  145  A    between atoms: _359  and  _360
REMARK  146  A    between atoms: _363  and  _365
REMARK  147  A    between atoms: _365  and  _366
REMARK  148  A    between atoms: _365  and  _368
REMARK  149  A    between atoms: _371  and  _373
REMARK  150  A    between atoms: _373  and  _374
REMARK  151  A    between atoms: _373  and  _376
REMARK  152  A    between atoms: _376  and  _377
REMARK  153  A    between atoms: _380  and  _382
REMARK  154  A    between atoms: _382  and  _383
REMARK  155  A    between atoms: _382  and  _385
REMARK  156  A    between atoms: _385  and  _386
REMARK  157  A    between atoms: _388  and  _390
REMARK  158  A    between atoms: _390  and  _391
REMARK  159  A    between atoms: _393  and  _395
REMARK  160  A    between atoms: _395  and  _396
REMARK  161  A    between atoms: _395  and  _398
REMARK  162  A    between atoms: _398  and  _399
REMARK  163  A    between atoms: _399  and  _640
REMARK  164  A    between atoms: _400  and  _402
REMARK  165  A    between atoms: _402  and  _403
REMARK  166  A    between atoms: _402  and  _405
REMARK  167  A    between atoms: _405  and  _406
REMARK  168  A    between atoms: _411  and  _412
REMARK  169  A    between atoms: _414  and  _416
REMARK  170  A    between atoms: _416  and  _417
REMARK  171  A    between atoms: _416  and  _419
REMARK  172  A    between atoms: _419  and  _420
REMARK  173  A    between atoms: _420  and  _421
REMARK  174  A    between atoms: _426  and  _428
REMARK  175  A    between atoms: _428  and  _429
REMARK  176  A    between atoms: _428  and  _431
REMARK  177  A    between atoms: _431  and  _432
REMARK  178  A    between atoms: _437  and  _438
REMARK  179  A    between atoms: _440  and  _442
REMARK  180  A    between atoms: _442  and  _443
REMARK  181  A    between atoms: _442  and  _445
REMARK  182  A    between atoms: _445  and  _446
REMARK  183  A    between atoms: _451  and  _452
REMARK  184  A    between atoms: _454  and  _456
REMARK  185  A    between atoms: _456  and  _457
REMARK  186  A    between atoms: _456  and  _459
REMARK  187  A    between atoms: _459  and  _460
REMARK  188  A    between atoms: _463  and  _465
REMARK  189  A    between atoms: _465  and  _466
REMARK  190  A    between atoms: _469  and  _471
REMARK  191  A    between atoms: _471  and  _472
REMARK  192  A    between atoms: _475  and  _477
REMARK  193  A    between atoms: _477  and  _478
REMARK  194  A    between atoms: _477  and  _480
REMARK  195  A    between atoms: _480  and  _481
REMARK  196  A    between atoms: _484  and  _486
REMARK  197  A    between atoms: _486  and  _487
REMARK  198  A    between atoms: _486  and  _489
REMARK  199  A    between atoms: _489  and  _490
REMARK  200  A    between atoms: _493  and  _495
REMARK  201  A    between atoms: _495  and  _496
REMARK  202  A    between atoms: _495  and  _498
REMARK  203  A    between atoms: _498  and  _499
REMARK  204  A    between atoms: _502  and  _504
REMARK  205  A    between atoms: _504  and  _505
REMARK  206  A    between atoms: _504  and  _507
REMARK  207  A    between atoms: _507  and  _508
REMARK  208  A    between atoms: _508  and  _509
REMARK  209  A    between atoms: _509  and  _510
REMARK  210  A    between atoms: _510  and  _511
REMARK  211  A    between atoms: _515  and  _517
REMARK  212  A    between atoms: _517  and  _518
REMARK  213  A    between atoms: _517  and  _520
REMARK  214  A    between atoms: _520  and  _521
REMARK  215  A    between atoms: _526  and  _528
REMARK  216  A    between atoms: _528  and  _529
REMARK  217  A    between atoms: _528  and  _531
REMARK  218  A    between atoms: _531  and  _532
REMARK  219  A    between atoms: _532  and  _533
REMARK  220  A    between atoms: _533  and  _534
REMARK  221  A    between atoms: _534  and  _535
REMARK  222  A    between atoms: _539  and  _541
REMARK  223  A    between atoms: _541  and  _542
REMARK  224  A    between atoms: _541  and  _544
REMARK  225  A    between atoms: _544  and  _545
REMARK  226  A    between atoms: _555  and  _557
REMARK  227  A    between atoms: _557  and  _558
REMARK  228  A    between atoms: _561  and  _563
REMARK  229  A    between atoms: _563  and  _564
REMARK  230  A    between atoms: _566  and  _568
REMARK  231  A    between atoms: _568  and  _569
REMARK  232  A    between atoms: _568  and  _571
REMARK  233  A    between atoms: _571  and  _572
REMARK  234  A    between atoms: _572  and  _573
REMARK  235  A    between atoms: _576  and  _578
REMARK  236  A    between atoms: _578  and  _579
REMARK  237  A    between atoms: _578  and  _581
REMARK  238  A    between atoms: _581  and  _582
REMARK  239  A    between atoms: _582  and  _583
REMARK  240  A    between atoms: _583  and  _584
REMARK  241  A    between atoms: _593  and  _595
REMARK  242  A    between atoms: _595  and  _596
REMARK  243  A    between atoms: _595  and  _598
REMARK  244  A    between atoms: _598  and  _599
REMARK  245  A    between atoms: _602  and  _604
REMARK  246  A    between atoms: _604  and  _605
REMARK  247  A    between atoms: _604  and  _607
REMARK  248  A    between atoms: _607  and  _608
REMARK  249  A    between atoms: _613  and  _614
REMARK  250  A    between atoms: _616  and  _618
REMARK  251  A    between atoms: _618  and  _619
REMARK  252  A    between atoms: _618  and  _621
REMARK  253  A    between atoms: _621  and  _622
REMARK  254  A    between atoms: _625  and  _627
REMARK  255  A    between atoms: _627  and  _628
REMARK  256  A    between atoms: _627  and  _630
REMARK  257  A    between atoms: _630  and  _631
REMARK  258  A    between atoms: _634  and  _636
REMARK  259  A    between atoms: _636  and  _637
REMARK  260  A    between atoms: _636  and  _639
REMARK  261  A    between atoms: _639  and  _640
REMARK  262  A    between atoms: _641  and  _643
REMARK  263  A    between atoms: _643  and  _644
REMARK  264  A    between atoms: _643  and  _646
REMARK  265  A    between atoms: _649  and  _651
REMARK  266  A    between atoms: _651  and  _652
REMARK  267  A    between atoms: _651  and  _654
REMARK  268  A    between atoms: _654  and  _655
REMARK  269  A    between atoms: _655  and  _656
REMARK  270  A    between atoms: _659  and  _661
REMARK  271  A    between atoms: _661  and  _662
REMARK  272  A    between atoms: _661  and  _664
REMARK  273  A    between atoms: _664  and  _665
REMARK  274  A    between atoms: _675  and  _677
REMARK  275  A    between atoms: _677  and  _678
REMARK  276  A    between atoms: _677  and  _680
REMARK  277  A    between atoms: _680  and  _681
REMARK  278  A    between atoms: _684  and  _686
REMARK  279  A    between atoms: _686  and  _687
REMARK  280  A    between atoms: _686  and  _689
REMARK  281  A    between atoms: _689  and  _690
REMARK  282  A    between atoms: _695  and  _696
REMARK                            x       y       z     vdW  Elec       q    Type
REMARK                         _______ _______ _______ _____ _____    ______ ____
ROOT
ATOM      1  CA  LYS A   6      44.507  58.327 -19.835  0.00  0.00    +0.149 C 
ENDROOT
BRANCH   1   2
ATOM      2  C   LYS A   6      44.530  59.745 -20.390  0.00  0.00    +0.241 C 
ATOM      3  O   LYS A   6      45.254  60.606 -19.890  0.00  0.00    -0.273 OA
ATOM      4  N   HIS A   7      43.719  59.992 -21.415  0.00  0.00    -0.297 N 
ATOM      5  H   HIS A   7      43.111  59.235 -21.786  0.00  0.00    +0.150 HD
BRANCH   4   6
ATOM      6  CA  HIS A   7      43.677  61.312 -22.019  0.00  0.00    +0.155 C 
BRANCH   6   7
ATOM      7  C   HIS A   7      43.172  62.354 -21.028  0.00  0.00    +0.241 C 
ATOM      8  N   LYS A   8      42.155  62.000 -20.247  0.00  0.00    -0.297 N 
ATOM      9  H   LYS A   8      41.735  61.054 -20.348  0.00  0.00    +0.150 HD
ATOM     10  O   HIS A   7      43.702  63.465 -20.965  0.00  0.00    -0.273 OA
BRANCH   8  11
ATOM     11  CA  LYS A   8      41.620  62.926 -19.247  0.00  0.00    +0.149 C 
BRANCH  11  12
ATOM     12  C   LYS A   8      42.679  63.302 -18.211  0.00  0.00    +0.241 C 
ATOM     13  N   TRP A   9      43.387  62.299 -17.704  0.00  0.00    -0.298 N 
ATOM     14  H   TRP A   9      43.215  61.328 -18.035  0.00  0.00    +0.150 HD
ATOM     15  O   LYS A   8      42.854  64.472 -17.868  0.00  0.00    -0.273 OA
BRANCH  13  16
ATOM     16  CA  TRP A   9      44.400  62.546 -16.691  0.00  0.00    +0.141 C 
BRANCH  16  17
ATOM     17  C   TRP A   9      45.614  63.322 -17.195  0.00  0.00    +0.227 C 
ATOM     18  O   TRP A   9      46.220  64.075 -16.439  0.00  0.00    -0.286 OA
ENDBRANCH  16  17
BRANCH  16  19
ATOM     19  CB  TRP A   9      44.819  61.219 -16.050  0.00  0.00    +0.056 C 
BRANCH  19  20
ATOM     20  CG  TRP A   9      43.713  60.620 -15.211  0.00  0.00    -0.002 A 
ATOM     21  CD2 TRP A   9      43.726  59.355 -14.538  0.00  0.00    +0.013 A 
ATOM     22  CE2 TRP A   9      42.491  59.231 -13.857  0.00  0.00    +0.056 A 
ATOM     23  CZ2 TRP A   9      42.165  58.109 -13.090  0.00  0.00    +0.017 A 
ATOM     24  CH2 TRP A   9      43.096  57.103 -13.010  0.00  0.00    +0.001 A 
ATOM     25  CZ3 TRP A   9      44.333  57.193 -13.673  0.00  0.00    +0.000 A 
ATOM     26  NE1 TRP A   9      41.767  60.366 -14.110  0.00  0.00    -0.352 N 
ATOM     27  HE1 TRP A   9      40.814  60.569 -13.747  0.00  0.00    +0.166 HD
ATOM     28  CE3 TRP A   9      44.660  58.313 -14.440  0.00  0.00    +0.001 A 
ATOM     29  CD1 TRP A   9      42.504  61.192 -14.921  0.00  0.00    +0.068 A 
ENDBRANCH  19  20
ENDBRANCH  16  19
ENDBRANCH  13  16
ENDBRANCH  11  12
BRANCH  11  30
ATOM     30  CB  LYS A   8      40.430  62.303 -18.508  0.00  0.00    +0.029 C 
BRANCH  30  31
ATOM     31  CG  LYS A   8      39.113  62.312 -19.262  0.00  0.00    +0.000 C 
BRANCH  31  32
ATOM     32  CD  LYS A   8      38.004  61.794 -18.359  0.00  0.00    -0.024 C 
BRANCH  32  33
ATOM     33  CE  LYS A   8      36.653  61.818 -19.051  0.00  0.00    -0.086 C 
BRANCH  33  34
ATOM     34  NZ  LYS A   8      35.575  61.383 -18.121  0.00  0.00    +0.380 N 
ATOM     35  HZ1 LYS A   8      35.545  62.024 -17.303  0.00  0.00    -0.089 HD
ATOM     36  HZ2 LYS A   8      35.769  60.414 -17.796  0.00  0.00    -0.089 HD
ATOM     37  HZ3 LYS A   8      34.661  61.408 -18.616  0.00  0.00    -0.089 HD
ENDBRANCH  33  34
ENDBRANCH  32  33
ENDBRANCH  31  32
ENDBRANCH  30  31
ENDBRANCH  11  30
ENDBRANCH   8  11
ENDBRANCH   6   7
BRANCH   6  38
ATOM     38  CB  HIS A   7      42.812  61.302 -23.284  0.00  0.00    +0.076 C 
BRANCH  38  39
ATOM     39  CG  HIS A   7      43.387  60.487 -24.403  0.00  0.00    +0.082 A 
ATOM     40  ND1 HIS A   7      44.742  60.287 -24.561  0.00  0.00    -0.227 NA
ATOM     41  CE1 HIS A   7      44.957  59.576 -25.653  0.00  0.00    +0.199 A 
ATOM     42  NE2 HIS A   7      43.790  59.305 -26.210  0.00  0.00    -0.221 NA
ATOM     43  CD2 HIS A   7      42.792  59.862 -25.447  0.00  0.00    +0.115 A 
ENDBRANCH  38  39
ENDBRANCH   6  38
ENDBRANCH   4   6
ENDBRANCH   1   2
BRANCH   1  46
ATOM     44  C   THR A   5      42.268  58.595 -18.909  0.00  0.00    +0.243 C 
ATOM     45  O   THR A   5      42.575  59.641 -18.342  0.00  0.00    -0.273 OA
ATOM     46  N   LYS A   6      43.127  57.892 -19.641  0.00  0.00    -0.297 N 
ATOM     47  H   LYS A   6      42.807  57.009 -20.087  0.00  0.00    +0.150 HD
BRANCH  44  48
ATOM     48  CA  THR A   5      40.851  58.035 -18.794  0.00  0.00    +0.176 C 
BRANCH  48  50
ATOM     49  C   ILE A   4      40.241  58.429 -21.114  0.00  0.00    +0.241 C 
ATOM     50  N   THR A   5      40.376  57.586 -20.096  0.00  0.00    -0.295 N 
ATOM     51  H   THR A   5      40.137  56.583 -20.232  0.00  0.00    +0.150 HD
ATOM     52  O   ILE A   4      40.486  59.633 -21.028  0.00  0.00    -0.273 OA
BRANCH  49  53
ATOM     53  CA  ILE A   4      39.756  57.811 -22.418  0.00  0.00    +0.149 C 
BRANCH  53  55
ATOM     54  C   LEU A   3      41.834  56.615 -22.837  0.00  0.00    +0.241 C 
ATOM     55  N   ILE A   4      40.519  56.583 -22.636  0.00  0.00    -0.297 N 
ATOM     56  H   ILE A   4      40.025  55.668 -22.634  0.00  0.00    +0.150 HD
ATOM     57  O   LEU A   3      42.475  57.667 -22.866  0.00  0.00    -0.273 OA
BRANCH  54  58
ATOM     58  CA  LEU A   3      42.535  55.264 -23.019  0.00  0.00    +0.149 C 
BRANCH  58  61
ATOM     59  C   ALA A   2      41.892  54.343 -20.892  0.00  0.00    +0.241 C 
ATOM     60  O   ALA A   2      42.502  55.239 -20.307  0.00  0.00    -0.273 OA
ATOM     61  N   LEU A   3      41.851  54.261 -22.217  0.00  0.00    -0.297 N 
ATOM     62  H   LEU A   3      41.334  53.485 -22.678  0.00  0.00    +0.150 HD
BRANCH  59  63
ATOM     63  CA  ALA A   2      41.142  53.268 -20.117  0.00  0.00    +0.149 C 
ATOM     64  CB  ALA A   2      42.091  52.136 -19.738  0.00  0.00    +0.031 C 
BRANCH  63  66
ATOM     65  C   ALA A   1      39.020  53.505 -21.309  0.00  0.00    +0.238 C 
ATOM     66  N   ALA A   2      40.034  52.743 -20.909  0.00  0.00    -0.297 N 
ATOM     67  H   ALA A   2      40.038  51.736 -21.170  0.00  0.00    +0.150 HD
ATOM     68  O   ALA A   1      38.934  54.705 -21.052  0.00  0.00    -0.274 OA
BRANCH  65  69
ATOM     69  CA  ALA A   1      37.950  52.801 -22.135  0.00  0.00    +0.145 C 
ATOM     70  CB  ALA A   1      37.131  51.858 -21.254  0.00  0.00    +0.028 C 
BRANCH  69  71
ATOM     71  N   ALA A   1      38.651  52.054 -23.174  0.00  0.00    -0.238 NA
ATOM     72  H   ALA A   1      38.681  51.015 -23.142  0.00  0.00    +0.142 HD
ENDBRANCH  69  71
ENDBRANCH  65  69
ENDBRANCH  63  66
ENDBRANCH  59  63
ENDBRANCH  58  61
BRANCH  58  73
ATOM     73  CB  LEU A   3      42.556  54.845 -24.492  0.00  0.00    +0.029 C 
BRANCH  73  74
ATOM     74  CG  LEU A   3      43.297  55.781 -25.452  0.00  0.00    +0.002 C 
ATOM     75  CD2 LEU A   3      44.718  56.037 -24.960  0.00  0.00    +0.000 C 
ATOM     76  CD1 LEU A   3      43.302  55.164 -26.840  0.00  0.00    +0.000 C 
ENDBRANCH  73  74
ENDBRANCH  58  73
ENDBRANCH  54  58
ENDBRANCH  53  55
BRANCH  53  77
ATOM     77  CB  ILE A   4      38.244  57.528 -22.293  0.00  0.00    +0.027 C 
ATOM     78  CG2 ILE A   4      37.508  58.800 -21.871  0.00  0.00    +0.002 C 
BRANCH  77  79
ATOM     79  CG1 ILE A   4      37.700  57.012 -23.627  0.00  0.00    +0.002 C 
ATOM     80  CD1 ILE A   4      36.251  56.580 -23.563  0.00  0.00    +0.000 C 
ENDBRANCH  77  79
ENDBRANCH  53  77
ENDBRANCH  49  53
ENDBRANCH  48  50
BRANCH  48  81
ATOM     81  CB  THR A   5      40.843  56.872 -17.782  0.00  0.00    +0.137 C 
ATOM     82  CG2 THR A   5      41.451  57.314 -16.462  0.00  0.00    +0.034 C 
BRANCH  81  83
ATOM     83  OG1 THR A   5      39.493  56.440 -17.563  0.00  0.00    -0.382 OA
ATOM     84  HG1 THR A   5      38.960  57.194 -17.205  0.00  0.00    +0.210 HD
ENDBRANCH  81  83
ENDBRANCH  48  81
ENDBRANCH  44  48
ENDBRANCH   1  46
BRANCH   1  85
ATOM     85  CB  LYS A   6      45.231  57.376 -20.795  0.00  0.00    +0.029 C 
BRANCH  85  86
ATOM     86  CG  LYS A   6      46.663  57.775 -21.155  0.00  0.00    +0.000 C 
BRANCH  86  87
ATOM     87  CD  LYS A   6      47.311  56.691 -22.017  0.00  0.00    -0.024 C 
BRANCH  87  88
ATOM     88  CE  LYS A   6      48.779  56.975 -22.317  0.00  0.00    -0.086 C 
BRANCH  88  89
ATOM     89  NZ  LYS A   6      48.983  58.157 -23.190  0.00  0.00    +0.380 N 
ATOM     90  HZ1 LYS A   6      48.589  59.001 -22.727  0.00  0.00    -0.089 HD
ATOM     91  HZ2 LYS A   6      50.001  58.294 -23.354  0.00  0.00    -0.089 HD
ATOM     92  HZ3 LYS A   6      48.502  58.002 -24.099  0.00  0.00    -0.089 HD
ENDBRANCH  88  89
ENDBRANCH  87  88
ENDBRANCH  86  87
ENDBRANCH  85  86
ENDBRANCH   1  85
TORSDOF 38
REMARK  Name = ../refined-set-2016/1g7q/1g7q_pocket.pdb
REMARK  282 active torsions:
REMARK  status: ('A' for Active; 'I' for Inactive)
REMARK    1  A    between atoms: _1  and  _3
REMARK    2  A    between atoms: _3  and  _4
REMARK    3  A    between atoms: _3  and  _6
REMARK    4  A    between atoms: _6  and  _7
REMARK    5  A    between atoms: _10  and  _12
REMARK    6  A    between atoms: _12  and  _13
REMARK    7  A    between atoms: _12  and  _15
REMARK    8  A    between atoms: _15  and  _16
REMARK    9  A    between atoms: _16  and  _17
REMARK   10  A    between atoms: _17  and  _18
REMARK   11  A    between atoms: _27  and  _29
REMARK   12  A    between atoms: _29  and  _30
REMARK   13  A    between atoms: _29  and  _32
REMARK   14  A    between atoms: _32  and  _33
REMARK   15  A    between atoms: _38  and  _39
REMARK   16  A    between atoms: _41  and  _43
REMARK   17  A    between atoms: _43  and  _44
REMARK   18  A    between atoms: _43  and  _46
REMARK   19  A    between atoms: _46  and  _47
REMARK   20  A    between atoms: _53  and  _55
REMARK   21  A    between atoms: _55  and  _56
REMARK   22  A    between atoms: _55  and  _58
REMARK   23  A    between atoms: _61  and  _63
REMARK   24  A    between atoms: _63  and  _64
REMARK   25  A    between atoms: _63  and  _66
REMARK   26  A    between atoms: _66  and  _67
REMARK   27  A    between atoms: _72  and  _73
REMARK   28  A    between atoms: _75  and  _77
REMARK   29  A    between atoms: _77  and  _78
REMARK   30  A    between atoms: _77  and  _80
REMARK   31  A    between atoms: _80  and  _81
REMARK   32  A    between atoms: _81  and  _82
REMARK   33  A    between atoms: _85  and  _87
REMARK   34  A    between atoms: _87  and  _88
REMARK   35  A    between atoms: _87  and  _90
REMARK   36  A    between atoms: _93  and  _95
REMARK   37  A    between atoms: _95  and  _96
REMARK   38  A    between atoms: _98  and  _100
REMARK   39  A    between atoms: _100  and  _101
REMARK   40  A    between atoms: _100  and  _103
REMARK   41  A    between atoms: _106  and  _108
REMARK   42  A    between atoms: _108  and  _109
REMARK   43  A    between atoms: _108  and  _111
REMARK   44  A    between atoms: _111  and  _112
REMARK   45  A    between atoms: _118  and  _120
REMARK   46  A    between atoms: _120  and  _121
REMARK   47  A    between atoms: _120  and  _123
REMARK   48  A    between atoms: _126  and  _128
REMARK   49  A    between atoms: _128  and  _129
REMARK   50  A    between atoms: _128  and  _131
REMARK   51  A    between atoms: _131  and  _132
REMARK   52  A    between atoms: _137  and  _138
REMARK   53  A    between atoms: _140  and  _142
REMARK   54  A    between atoms: _142  and  _143
REMARK   55  A    between atoms: _142  and  _145
REMARK   56  A    between atoms: _145  and  _146
REMARK   57  A    between atoms: _146  and  _147
REMARK   58  A    between atoms: _149  and  _151
REMARK   59  A    between atoms: _151  and  _152
REMARK   60  A    between atoms: _151  and  _154
REMARK   61  A    between atoms: _154  and  _155
REMARK   62  A    between atoms: _160  and  _161
REMARK   63  A    between atoms: _163  and  _165
REMARK   64  A    between atoms: _165  and  _166
REMARK   65  A    between atoms: _165  and  _168
REMARK   66  A    between atoms: _168  and  _169
REMARK   67  A    between atoms: _169  and  _170
REMARK   68  A    between atoms: _170  and  _171
REMARK   69  A    between atoms: _180  and  _182
REMARK   70  A    between atoms: _182  and  _183
REMARK   71  A    between atoms: _182  and  _185
REMARK   72  A    between atoms: _185  and  _186
REMARK   73  A    between atoms: _186  and  _187
REMARK   74  A    between atoms: _190  and  _192
REMARK   75  A    between atoms: _192  and  _193
REMARK   76  A    between atoms: _192  and  _195
REMARK   77  A    between atoms: _195  and  _196
REMARK   78  A    between atoms: _196  and  _197
REMARK   79  A    between atoms: _202  and  _204
REMARK   80  A    between atoms: _204  and  _205
REMARK   81  A    between atoms: _204  and  _207
REMARK   82  A    between atoms: _207  and  _208
REMARK   83  A    between atoms: _208  and  _209
REMARK   84  A    between atoms: _209  and  _210
REMARK   85  A    between atoms: _210  and  _211
REMARK   86  A    between atoms: _215  and  _217
REMARK   87  A    between atoms: _217  and  _218
REMARK   88  A    between atoms: _221  and  _223
REMARK   89  A    between atoms: _223  and  _224
REMARK   90  A    between atoms: _226  and  _228
REMARK   91  A    between atoms: _228  and  _229
REMARK   92  A    between atoms: _228  and  _231
REMARK   93  A    between atoms: _231  and  _232
REMARK   94  A    between atoms: _237  and  _239
REMARK   95  A    between atoms: _239  and  _240
REMARK   96  A    between atoms: _239  and  _242
REMARK   97  A    between atoms: _242  and  _243
REMARK   98  A    between atoms: _243  and  _244
REMARK   99  A    between atoms: _247  and  _249
REMARK  100  A    between atoms: _249  and  _250
REMARK  101  A    between atoms: _249  and  _252
REMARK  102  A    between atoms: _252  and  _253
REMARK  103  A    between atoms: _253  and  _254
REMARK  104  A    between atoms: _259  and  _261
REMARK  105  A    between atoms: _261  and  _262
REMARK  106  A    between atoms: _261  and  _264
REMARK  107  A    between atoms: _264  and  _265
REMARK  108  A    between atoms: _267  and  _269
REMARK  109  A    between atoms: _269  and  _270
REMARK  110  A    between atoms: _269  and  _272
REMARK  111  A    between atoms: _272  and  _273
REMARK  112  A    between atoms: _279  and  _281
REMARK  113  A    between atoms: _281  and  _282
REMARK  114  A    between atoms: _281  and  _284
REMARK  115  A    between atoms: _284  and  _285
REMARK  116  A    between atoms: _285  and  _286
REMARK  117  A    between atoms: _286  and  _287
REMARK  118  A    between atoms: _296  and  _298
REMARK  119  A    between atoms: _298  and  _299
REMARK  120  A    between atoms: _298  and  _301
REMARK  121  A    between atoms: _304  and  _306
REMARK  122  A    between atoms: _306  and  _307
REMARK  123  A    between atoms: _306  and  _309
REMARK  124  A    between atoms: _309  and  _310
REMARK  125  A    between atoms: _313  and  _315
REMARK  126  A    between atoms: _315  and  _316
REMARK  127  A    between atoms: _315  and  _318
REMARK  128  A    between atoms: _318  and  _319
REMARK  129  A    between atoms: _322  and  _324
REMARK  130  A    between atoms: _324  and  _325
REMARK  131  A    between atoms: _324  and  _327
REMARK  132  A    between atoms: _327  and  _328
REMARK  133  A    between atoms: _331  and  _333
REMARK  134  A    between atoms: _333  and  _334
REMARK  135  A    between atoms: _333  and  _336
REMARK  136  A    between atoms: _336  and  _337
REMARK  137  A    between atoms: _340  and  _342
REMARK  138  A    between atoms: _342  and  _343
REMARK  139  A    between atoms: _342  and  _345
REMARK  140  A    between atoms: _345  and  _346
REMARK  141  A    between atoms: _351  and  _352
REMARK  142  A    between atoms: _354  and  _356
REMARK  143  A    between atoms: _356  and  _357
REMARK  144  A    between atoms: _356  and  _359
REMARK  145  A    between atoms: _359  and  _360
REMARK  146  A    between atoms: _363  and  _365
REMARK  147  A    between atoms: _365  and  _366
REMARK  148  A    between atoms: _365  and  _368
REMARK  149  A    between atoms: _371  and  _373
REMARK  150  A    between atoms: _373  and  _374
REMARK  151  A    between atoms: _373  and  _376
REMARK  152  A    between atoms: _376  and  _377
REMARK  153  A    between atoms: _380  and  _382
REMARK  154  A    between atoms: _382  and  _383
REMARK  155  A    between atoms: _382  and  _385
REMARK  156  A    between atoms: _385  and  _386
REMARK  157  A    between atoms: _388  and  _390
REMARK  158  A    between atoms: _390  and  _391
REMARK  159  A    between atoms: _393  and  _395
REMARK  160  A    between atoms: _395  and  _396
REMARK  161  A    between atoms: _395  and  _398
REMARK  162  A    between atoms: _398  and  _399
REMARK  163  A    between atoms: _399  and  _640
REMARK  164  A    between atoms: _400  and  _402
REMARK  165  A    between atoms: _402  and  _403
REMARK  166  A    between atoms: _402  and  _405
REMARK  167  A    between atoms: _405  and  _406
REMARK  168  A    between atoms: _411  and  _412
REMARK  169  A    between atoms: _414  and  _416
REMARK  170  A    between atoms: _416  and  _417
REMARK  171  A    between atoms: _416  and  _419
REMARK  172  A    between atoms: _419  and  _420
REMARK  173  A    between atoms: _420  and  _421
REMARK  174  A    between atoms: _426  and  _428
REMARK  175  A    between atoms: _428  and  _429
REMARK  176  A    between atoms: _428  and  _431
REMARK  177  A    between atoms: _431  and  _432
REMARK  178  A    between atoms: _437  and  _438
REMARK  179  A    between atoms: _440  and  _442
REMARK  180  A    between atoms: _442  and  _443
REMARK  181  A    between atoms: _442  and  _445
REMARK  182  A    between atoms: _445  and  _446
REMARK  183  A    between atoms: _451  and  _452
REMARK  184  A    between atoms: _454  and  _456
REMARK  185  A    between atoms: _456  and  _457
REMARK  186  A    between atoms: _456  and  _459
REMARK  187  A    between atoms: _459  and  _460
REMARK  188  A    between atoms: _463  and  _465
REMARK  189  A    between atoms: _465  and  _466
REMARK  190  A    between atoms: _469  and  _471
REMARK  191  A    between atoms: _471  and  _472
REMARK  192  A    between atoms: _475  and  _477
REMARK  193  A    between atoms: _477  and  _478
REMARK  194  A    between atoms: _477  and  _480
REMARK  195  A    between atoms: _480  and  _481
REMARK  196  A    between atoms: _484  and  _486
REMARK  197  A    between atoms: _486  and  _487
REMARK  198  A    between atoms: _486  and  _489
REMARK  199  A    between atoms: _489  and  _490
REMARK  200  A    between atoms: _493  and  _495
REMARK  201  A    between atoms: _495  and  _496
REMARK  202  A    between atoms: _495  and  _498
REMARK  203  A    between atoms: _498  and  _499
REMARK  204  A    between atoms: _502  and  _504
REMARK  205  A    between atoms: _504  and  _505
REMARK  206  A    between atoms: _504  and  _507
REMARK  207  A    between atoms: _507  and  _508
REMARK  208  A    between atoms: _508  and  _509
REMARK  209  A    between atoms: _509  and  _510
REMARK  210  A    between atoms: _510  and  _511
REMARK  211  A    between atoms: _515  and  _517
REMARK  212  A    between atoms: _517  and  _518
REMARK  213  A    between atoms: _517  and  _520
REMARK  214  A    between atoms: _520  and  _521
REMARK  215  A    between atoms: _526  and  _528
REMARK  216  A    between atoms: _528  and  _529
REMARK  217  A    between atoms: _528  and  _531
REMARK  218  A    between atoms: _531  and  _532
REMARK  219  A    between atoms: _532  and  _533
REMARK  220  A    between atoms: _533  and  _534
REMARK  221  A    between atoms: _534  and  _535
REMARK  222  A    between atoms: _539  and  _541
REMARK  223  A    between atoms: _541  and  _542
REMARK  224  A    between atoms: _541  and  _544
REMARK  225  A    between atoms: _544  and  _545
REMARK  226  A    between atoms: _555  and  _557
REMARK  227  A    between atoms: _557  and  _558
REMARK  228  A    between atoms: _561  and  _563
REMARK  229  A    between atoms: _563  and  _564
REMARK  230  A    between atoms: _566  and  _568
REMARK  231  A    between atoms: _568  and  _569
REMARK  232  A    between atoms: _568  and  _571
REMARK  233  A    between atoms: _571  and  _572
REMARK  234  A    between atoms: _572  and  _573
REMARK  235  A    between atoms: _576  and  _578
REMARK  236  A    between atoms: _578  and  _579
REMARK  237  A    between atoms: _578  and  _581
REMARK  238  A    between atoms: _581  and  _582
REMARK  239  A    between atoms: _582  and  _583
REMARK  240  A    between atoms: _583  and  _584
REMARK  241  A    between atoms: _593  and  _595
REMARK  242  A    between atoms: _595  and  _596
REMARK  243  A    between atoms: _595  and  _598
REMARK  244  A    between atoms: _598  and  _599
REMARK  245  A    between atoms: _602  and  _604
REMARK  246  A    between atoms: _604  and  _605
REMARK  247  A    between atoms: _604  and  _607
REMARK  248  A    between atoms: _607  and  _608
REMARK  249  A    between atoms: _613  and  _614
REMARK  250  A    between atoms: _616  and  _618
REMARK  251  A    between atoms: _618  and  _619
REMARK  252  A    between atoms: _618  and  _621
REMARK  253  A    between atoms: _621  and  _622
REMARK  254  A    between atoms: _625  and  _627
REMARK  255  A    between atoms: _627  and  _628
REMARK  256  A    between atoms: _627  and  _630
REMARK  257  A    between atoms: _630  and  _631
REMARK  258  A    between atoms: _634  and  _636
REMARK  259  A    between atoms: _636  and  _637
REMARK  260  A    between atoms: _636  and  _639
REMARK  261  A    between atoms: _639  and  _640
REMARK  262  A    between atoms: _641  and  _643
REMARK  263  A    between atoms: _643  and  _644
REMARK  264  A    between atoms: _643  and  _646
REMARK  265  A    between atoms: _649  and  _651
REMARK  266  A    between atoms: _651  and  _652
REMARK  267  A    between atoms: _651  and  _654
REMARK  268  A    between atoms: _654  and  _655
REMARK  269  A    between atoms: _655  and  _656
REMARK  270  A    between atoms: _659  and  _661
REMARK  271  A    between atoms: _661  and  _662
REMARK  272  A    between atoms: _661  and  _664
REMARK  273  A    between atoms: _664  and  _665
REMARK  274  A    between atoms: _675  and  _677
REMARK  275  A    between atoms: _677  and  _678
REMARK  276  A    between atoms: _677  and  _680
REMARK  277  A    between atoms: _680  and  _681
REMARK  278  A    between atoms: _684  and  _686
REMARK  279  A    between atoms: _686  and  _687
REMARK  280  A    between atoms: _686  and  _689
REMARK  281  A    between atoms: _689  and  _690
REMARK  282  A    between atoms: _695  and  _696
REMARK                            x       y       z     vdW  Elec       q    Type
REMARK                         _______ _______ _______ _____ _____    ______ ____
ROOT
ATOM      1  C   GLY A   2      48.125  65.937 -13.858  0.00  0.00    +0.243 C 
ATOM      2  O   GLY A   2      48.827  66.199 -12.880  0.00  0.00    -0.273 OA
ATOM      3  N   GLU A   3      47.342  64.866 -13.914  0.00  0.00    -0.298 N 
ATOM      4  H   GLU A   3      46.791  64.682 -14.777  0.00  0.00    +0.150 HD
ENDROOT
BRANCH   1   5
ATOM      5  CA  GLY A   2      48.133  66.829 -15.086  0.00  0.00    +0.176 C 
BRANCH   5   8
ATOM      6  C   ALA A   1      45.802  67.481 -15.193  0.00  0.00    +0.238 C 
ATOM      7  O   ALA A   1      45.856  68.022 -14.088  0.00  0.00    -0.274 OA
ATOM      8  N   GLY A   2      46.845  66.880 -15.758  0.00  0.00    -0.296 N 
ATOM      9  H   GLY A   2      46.738  66.440 -16.694  0.00  0.00    +0.150 HD
BRANCH   6  10
ATOM     10  CA  ALA A   1      44.500  67.473 -15.989  0.00  0.00    +0.145 C 
ATOM     11  CB  ALA A   1      43.430  66.688 -15.233  0.00  0.00    +0.028 C 
BRANCH  10  12
ATOM     12  N   ALA A   1      44.669  66.921 -17.328  0.00  0.00    -0.238 NA
ATOM     13  H   ALA A   1      44.585  65.894 -17.471  0.00  0.00    +0.142 HD
ENDBRANCH  10  12
ENDBRANCH   6  10
ENDBRANCH   5   8
ENDBRANCH   1   5
BRANCH   3  14
ATOM     14  CA  GLU A   3      47.239  63.942 -12.790  0.00  0.00    +0.137 C 
BRANCH  14  15
ATOM     15  C   GLU A   3      48.545  63.221 -12.455  0.00  0.00    +0.227 C 
ATOM     16  O   GLU A   3      48.841  62.983 -11.285  0.00  0.00    -0.286 OA
ENDBRANCH  14  15
BRANCH  14  17
ATOM     17  CB  GLU A   3      46.146  62.909 -13.060  0.00  0.00    +0.039 C 
BRANCH  17  18
ATOM     18  CG  GLU A   3      44.741  63.488 -13.170  0.00  0.00    +0.116 C 
BRANCH  18  19
ATOM     19  CD  GLU A   3      44.308  64.255 -11.928  0.00  0.00    +0.365 C 
ATOM     20  OE2 GLU A   3      44.937  64.092 -10.858  0.00  0.00    -0.246 OA
ATOM     21  OE1 GLU A   3      43.323  65.016 -12.022  0.00  0.00    -0.246 OA
ENDBRANCH  18  19
ENDBRANCH  17  18
ENDBRANCH  14  17
ENDBRANCH   3  14
TORSDOF 9
REMARK  Name = ../refined-set-2016/1g7q/1g7q_pocket.pdb
REMARK  282 active torsions:
REMARK  status: ('A' for Active; 'I' for Inactive)
REMARK    1  A    between atoms: _1  and  _3
REMARK    2  A    between atoms: _3  and  _4
REMARK    3  A    between atoms: _3  and  _6
REMARK    4  A    between atoms: _6  and  _7
REMARK    5  A    between atoms: _10  and  _12
REMARK    6  A    between atoms: _12  and  _13
REMARK    7  A    between atoms: _12  and  _15
REMARK    8  A    between atoms: _15  and  _16
REMARK    9  A    between atoms: _16  and  _17
REMARK   10  A    between atoms: _17  and  _18
REMARK   11  A    between atoms: _27  and  _29
REMARK   12  A    between atoms: _29  and  _30
REMARK   13  A    between atoms: _29  and  _32
REMARK   14  A    between atoms: _32  and  _33
REMARK   15  A    between atoms: _38  and  _39
REMARK   16  A    between atoms: _41  and  _43
REMARK   17  A    between atoms: _43  and  _44
REMARK   18  A    between atoms: _43  and  _46
REMARK   19  A    between atoms: _46  and  _47
REMARK   20  A    between atoms: _53  and  _55
REMARK   21  A    between atoms: _55  and  _56
REMARK   22  A    between atoms: _55  and  _58
REMARK   23  A    between atoms: _61  and  _63
REMARK   24  A    between atoms: _63  and  _64
REMARK   25  A    between atoms: _63  and  _66
REMARK   26  A    between atoms: _66  and  _67
REMARK   27  A    between atoms: _72  and  _73
REMARK   28  A    between atoms: _75  and  _77
REMARK   29  A    between atoms: _77  and  _78
REMARK   30  A    between atoms: _77  and  _80
REMARK   31  A    between atoms: _80  and  _81
REMARK   32  A    between atoms: _81  and  _82
REMARK   33  A    between atoms: _85  and  _87
REMARK   34  A    between atoms: _87  and  _88
REMARK   35  A    between atoms: _87  and  _90
REMARK   36  A    between atoms: _93  and  _95
REMARK   37  A    between atoms: _95  and  _96
REMARK   38  A    between atoms: _98  and  _100
REMARK   39  A    between atoms: _100  and  _101
REMARK   40  A    between atoms: _100  and  _103
REMARK   41  A    between atoms: _106  and  _108
REMARK   42  A    between atoms: _108  and  _109
REMARK   43  A    between atoms: _108  and  _111
REMARK   44  A    between atoms: _111  and  _112
REMARK   45  A    between atoms: _118  and  _120
REMARK   46  A    between atoms: _120  and  _121
REMARK   47  A    between atoms: _120  and  _123
REMARK   48  A    between atoms: _126  and  _128
REMARK   49  A    between atoms: _128  and  _129
REMARK   50  A    between atoms: _128  and  _131
REMARK   51  A    between atoms: _131  and  _132
REMARK   52  A    between atoms: _137  and  _138
REMARK   53  A    between atoms: _140  and  _142
REMARK   54  A    between atoms: _142  and  _143
REMARK   55  A    between atoms: _142  and  _145
REMARK   56  A    between atoms: _145  and  _146
REMARK   57  A    between atoms: _146  and  _147
REMARK   58  A    between atoms: _149  and  _151
REMARK   59  A    between atoms: _151  and  _152
REMARK   60  A    between atoms: _151  and  _154
REMARK   61  A    between atoms: _154  and  _155
REMARK   62  A    between atoms: _160  and  _161
REMARK   63  A    between atoms: _163  and  _165
REMARK   64  A    between atoms: _165  and  _166
REMARK   65  A    between atoms: _165  and  _168
REMARK   66  A    between atoms: _168  and  _169
REMARK   67  A    between atoms: _169  and  _170
REMARK   68  A    between atoms: _170  and  _171
REMARK   69  A    between atoms: _180  and  _182
REMARK   70  A    between atoms: _182  and  _183
REMARK   71  A    between atoms: _182  and  _185
REMARK   72  A    between atoms: _185  and  _186
REMARK   73  A    between atoms: _186  and  _187
REMARK   74  A    between atoms: _190  and  _192
REMARK   75  A    between atoms: _192  and  _193
REMARK   76  A    between atoms: _192  and  _195
REMARK   77  A    between atoms: _195  and  _196
REMARK   78  A    between atoms: _196  and  _197
REMARK   79  A    between atoms: _202  and  _204
REMARK   80  A    between atoms: _204  and  _205
REMARK   81  A    between atoms: _204  and  _207
REMARK   82  A    between atoms: _207  and  _208
REMARK   83  A    between atoms: _208  and  _209
REMARK   84  A    between atoms: _209  and  _210
REMARK   85  A    between atoms: _210  and  _211
REMARK   86  A    between atoms: _215  and  _217
REMARK   87  A    between atoms: _217  and  _218
REMARK   88  A    between atoms: _221  and  _223
REMARK   89  A    between atoms: _223  and  _224
REMARK   90  A    between atoms: _226  and  _228
REMARK   91  A    between atoms: _228  and  _229
REMARK   92  A    between atoms: _228  and  _231
REMARK   93  A    between atoms: _231  and  _232
REMARK   94  A    between atoms: _237  and  _239
REMARK   95  A    between atoms: _239  and  _240
REMARK   96  A    between atoms: _239  and  _242
REMARK   97  A    between atoms: _242  and  _243
REMARK   98  A    between atoms: _243  and  _244
REMARK   99  A    between atoms: _247  and  _249
REMARK  100  A    between atoms: _249  and  _250
REMARK  101  A    between atoms: _249  and  _252
REMARK  102  A    between atoms: _252  and  _253
REMARK  103  A    between atoms: _253  and  _254
REMARK  104  A    between atoms: _259  and  _261
REMARK  105  A    between atoms: _261  and  _262
REMARK  106  A    between atoms: _261  and  _264
REMARK  107  A    between atoms: _264  and  _265
REMARK  108  A    between atoms: _267  and  _269
REMARK  109  A    between atoms: _269  and  _270
REMARK  110  A    between atoms: _269  and  _272
REMARK  111  A    between atoms: _272  and  _273
REMARK  112  A    between atoms: _279  and  _281
REMARK  113  A    between atoms: _281  and  _282
REMARK  114  A    between atoms: _281  and  _284
REMARK  115  A    between atoms: _284  and  _285
REMARK  116  A    between atoms: _285  and  _286
REMARK  117  A    between atoms: _286  and  _287
REMARK  118  A    between atoms: _296  and  _298
REMARK  119  A    between atoms: _298  and  _299
REMARK  120  A    between atoms: _298  and  _301
REMARK  121  A    between atoms: _304  and  _306
REMARK  122  A    between atoms: _306  and  _307
REMARK  123  A    between atoms: _306  and  _309
REMARK  124  A    between atoms: _309  and  _310
REMARK  125  A    between atoms: _313  and  _315
REMARK  126  A    between atoms: _315  and  _316
REMARK  127  A    between atoms: _315  and  _318
REMARK  128  A    between atoms: _318  and  _319
REMARK  129  A    between atoms: _322  and  _324
REMARK  130  A    between atoms: _324  and  _325
REMARK  131  A    between atoms: _324  and  _327
REMARK  132  A    between atoms: _327  and  _328
REMARK  133  A    between atoms: _331  and  _333
REMARK  134  A    between atoms: _333  and  _334
REMARK  135  A    between atoms: _333  and  _336
REMARK  136  A    between atoms: _336  and  _337
REMARK  137  A    between atoms: _340  and  _342
REMARK  138  A    between atoms: _342  and  _343
REMARK  139  A    between atoms: _342  and  _345
REMARK  140  A    between atoms: _345  and  _346
REMARK  141  A    between atoms: _351  and  _352
REMARK  142  A    between atoms: _354  and  _356
REMARK  143  A    between atoms: _356  and  _357
REMARK  144  A    between atoms: _356  and  _359
REMARK  145  A    between atoms: _359  and  _360
REMARK  146  A    between atoms: _363  and  _365
REMARK  147  A    between atoms: _365  and  _366
REMARK  148  A    between atoms: _365  and  _368
REMARK  149  A    between atoms: _371  and  _373
REMARK  150  A    between atoms: _373  and  _374
REMARK  151  A    between atoms: _373  and  _376
REMARK  152  A    between atoms: _376  and  _377
REMARK  153  A    between atoms: _380  and  _382
REMARK  154  A    between atoms: _382  and  _383
REMARK  155  A    between atoms: _382  and  _385
REMARK  156  A    between atoms: _385  and  _386
REMARK  157  A    between atoms: _388  and  _390
REMARK  158  A    between atoms: _390  and  _391
REMARK  159  A    between atoms: _393  and  _395
REMARK  160  A    between atoms: _395  and  _396
REMARK  161  A    between atoms: _395  and  _398
REMARK  162  A    between atoms: _398  and  _399
REMARK  163  A    between atoms: _399  and  _640
REMARK  164  A    between atoms: _400  and  _402
REMARK  165  A    between atoms: _402  and  _403
REMARK  166  A    between atoms: _402  and  _405
REMARK  167  A    between atoms: _405  and  _406
REMARK  168  A    between atoms: _411  and  _412
REMARK  169  A    between atoms: _414  and  _416
REMARK  170  A    between atoms: _416  and  _417
REMARK  171  A    between atoms: _416  and  _419
REMARK  172  A    between atoms: _419  and  _420
REMARK  173  A    between atoms: _420  and  _421
REMARK  174  A    between atoms: _426  and  _428
REMARK  175  A    between atoms: _428  and  _429
REMARK  176  A    between atoms: _428  and  _431
REMARK  177  A    between atoms: _431  and  _432
REMARK  178  A    between atoms: _437  and  _438
REMARK  179  A    between atoms: _440  and  _442
REMARK  180  A    between atoms: _442  and  _443
REMARK  181  A    between atoms: _442  and  _445
REMARK  182  A    between atoms: _445  and  _446
REMARK  183  A    between atoms: _451  and  _452
REMARK  184  A    between atoms: _454  and  _456
REMARK  185  A    between atoms: _456  and  _457
REMARK  186  A    between atoms: _456  and  _459
REMARK  187  A    between atoms: _459  and  _460
REMARK  188  A    between atoms: _463  and  _465
REMARK  189  A    between atoms: _465  and  _466
REMARK  190  A    between atoms: _469  and  _471
REMARK  191  A    between atoms: _471  and  _472
REMARK  192  A    between atoms: _475  and  _477
REMARK  193  A    between atoms: _477  and  _478
REMARK  194  A    between atoms: _477  and  _480
REMARK  195  A    between atoms: _480  and  _481
REMARK  196  A    between atoms: _484  and  _486
REMARK  197  A    between atoms: _486  and  _487
REMARK  198  A    between atoms: _486  and  _489
REMARK  199  A    between atoms: _489  and  _490
REMARK  200  A    between atoms: _493  and  _495
REMARK  201  A    between atoms: _495  and  _496
REMARK  202  A    between atoms: _495  and  _498
REMARK  203  A    between atoms: _498  and  _499
REMARK  204  A    between atoms: _502  and  _504
REMARK  205  A    between atoms: _504  and  _505
REMARK  206  A    between atoms: _504  and  _507
REMARK  207  A    between atoms: _507  and  _508
REMARK  208  A    between atoms: _508  and  _509
REMARK  209  A    between atoms: _509  and  _510
REMARK  210  A    between atoms: _510  and  _511
REMARK  211  A    between atoms: _515  and  _517
REMARK  212  A    between atoms: _517  and  _518
REMARK  213  A    between atoms: _517  and  _520
REMARK  214  A    between atoms: _520  and  _521
REMARK  215  A    between atoms: _526  and  _528
REMARK  216  A    between atoms: _528  and  _529
REMARK  217  A    between atoms: _528  and  _531
REMARK  218  A    between atoms: _531  and  _532
REMARK  219  A    between atoms: _532  and  _533
REMARK  220  A    between atoms: _533  and  _534
REMARK  221  A    between atoms: _534  and  _535
REMARK  222  A    between atoms: _539  and  _541
REMARK  223  A    between atoms: _541  and  _542
REMARK  224  A    between atoms: _541  and  _544
REMARK  225  A    between atoms: _544  and  _545
REMARK  226  A    between atoms: _555  and  _557
REMARK  227  A    between atoms: _557  and  _558
REMARK  228  A    between atoms: _561  and  _563
REMARK  229  A    between atoms: _563  and  _564
REMARK  230  A    between atoms: _566  and  _568
REMARK  231  A    between atoms: _568  and  _569
REMARK  232  A    between atoms: _568  and  _571
REMARK  233  A    between atoms: _571  and  _572
REMARK  234  A    between atoms: _572  and  _573
REMARK  235  A    between atoms: _576  and  _578
REMARK  236  A    between atoms: _578  and  _579
REMARK  237  A    between atoms: _578  and  _581
REMARK  238  A    between atoms: _581  and  _582
REMARK  239  A    between atoms: _582  and  _583
REMARK  240  A    between atoms: _583  and  _584
REMARK  241  A    between atoms: _593  and  _595
REMARK  242  A    between atoms: _595  and  _596
REMARK  243  A    between atoms: _595  and  _598
REMARK  244  A    between atoms: _598  and  _599
REMARK  245  A    between atoms: _602  and  _604
REMARK  246  A    between atoms: _604  and  _605
REMARK  247  A    between atoms: _604  and  _607
REMARK  248  A    between atoms: _607  and  _608
REMARK  249  A    between atoms: _613  and  _614
REMARK  250  A    between atoms: _616  and  _618
REMARK  251  A    between atoms: _618  and  _619
REMARK  252  A    between atoms: _618  and  _621
REMARK  253  A    between atoms: _621  and  _622
REMARK  254  A    between atoms: _625  and  _627
REMARK  255  A    between atoms: _627  and  _628
REMARK  256  A    between atoms: _627  and  _630
REMARK  257  A    between atoms: _630  and  _631
REMARK  258  A    between atoms: _634  and  _636
REMARK  259  A    between atoms: _636  and  _637
REMARK  260  A    between atoms: _636  and  _639
REMARK  261  A    between atoms: _639  and  _640
REMARK  262  A    between atoms: _641  and  _643
REMARK  263  A    between atoms: _643  and  _644
REMARK  264  A    between atoms: _643  and  _646
REMARK  265  A    between atoms: _649  and  _651
REMARK  266  A    between atoms: _651  and  _652
REMARK  267  A    between atoms: _651  and  _654
REMARK  268  A    between atoms: _654  and  _655
REMARK  269  A    between atoms: _655  and  _656
REMARK  270  A    between atoms: _659  and  _661
REMARK  271  A    between atoms: _661  and  _662
REMARK  272  A    between atoms: _661  and  _664
REMARK  273  A    between atoms: _664  and  _665
REMARK  274  A    between atoms: _675  and  _677
REMARK  275  A    between atoms: _677  and  _678
REMARK  276  A    between atoms: _677  and  _680
REMARK  277  A    between atoms: _680  and  _681
REMARK  278  A    between atoms: _684  and  _686
REMARK  279  A    between atoms: _686  and  _687
REMARK  280  A    between atoms: _686  and  _689
REMARK  281  A    between atoms: _689  and  _690
REMARK  282  A    between atoms: _695  and  _696
REMARK                            x       y       z     vdW  Elec       q    Type
REMARK                         _______ _______ _______ _____ _____    ______ ____
ROOT
ATOM      1  CA  ARG A   1      50.169  65.252  -8.812  0.00  0.00    +0.145 C 
ENDROOT
BRANCH   1   2
ATOM      2  C   ARG A   1      50.435  63.932  -8.089  0.00  0.00    +0.238 C 
ATOM      3  O   ARG A   1      50.798  63.917  -6.908  0.00  0.00    -0.274 OA
ATOM      4  N   LEU A   2      50.261  62.828  -8.807  0.00  0.00    -0.298 N 
ATOM      5  H   LEU A   2      49.961  62.908  -9.800  0.00  0.00    +0.150 HD
BRANCH   4   6
ATOM      6  CA  LEU A   2      50.481  61.508  -8.233  0.00  0.00    +0.137 C 
BRANCH   6   7
ATOM      7  C   LEU A   2      51.961  61.296  -7.948  0.00  0.00    +0.227 C 
ATOM      8  O   LEU A   2      52.332  60.711  -6.926  0.00  0.00    -0.286 OA
ENDBRANCH   6   7
BRANCH   6   9
ATOM      9  CB  LEU A   2      49.958  60.425  -9.182  0.00  0.00    +0.028 C 
BRANCH   9  10
ATOM     10  CG  LEU A   2      50.091  58.961  -8.757  0.00  0.00    +0.002 C 
ATOM     11  CD2 LEU A   2      49.470  58.735  -7.384  0.00  0.00    +0.000 C 
ATOM     12  CD1 LEU A   2      49.413  58.091  -9.802  0.00  0.00    +0.000 C 
ENDBRANCH   9  10
ENDBRANCH   6   9
ENDBRANCH   4   6
ENDBRANCH   1   2
BRANCH   1  13
ATOM     13  N   ARG A   1      50.728  65.211 -10.156  0.00  0.00    -0.238 NA
ATOM     14  H   ARG A   1      50.084  65.220 -10.973  0.00  0.00    +0.142 HD
ENDBRANCH   1  13
BRANCH   1  15
ATOM     15  CB  ARG A   1      48.661  65.517  -8.881  0.00  0.00    +0.030 C 
BRANCH  15  16
ATOM     16  CG  ARG A   1      48.066  66.027  -7.587  0.00  0.00    +0.045 C 
BRANCH  16  17
ATOM     17  CD  ARG A   1      46.903  65.168  -7.136  0.00  0.00    +0.174 C 
BRANCH  17  18
ATOM     18  NE  ARG A   1      47.322  63.788  -6.904  0.00  0.00    -0.265 N 
ATOM     19  CZ  ARG A   1      46.561  62.864  -6.329  0.00  0.00    +0.342 C 
ATOM     20  NH2 ARG A   1      45.337  63.174  -5.925  0.00  0.00    -0.292 N 
ATOM     21 HH21 ARG A   1      44.740  62.452  -5.474  0.00  0.00    +0.255 HD
ATOM     22 HH22 ARG A   1      44.974  64.139  -6.059  0.00  0.00    +0.255 HD
ATOM     23  NH1 ARG A   1      47.023  61.632  -6.158  0.00  0.00    -0.292 N 
ATOM     24 HH11 ARG A   1      46.425  60.910  -5.707  0.00  0.00    +0.255 HD
ATOM     25 HH12 ARG A   1      47.983  61.388  -6.475  0.00  0.00    +0.255 HD
ATOM     26  HE  ARG A   1      48.277  63.511  -7.209  0.00  0.00    +0.259 HD
ENDBRANCH  17  18
ENDBRANCH  16  17
ENDBRANCH  15  16
ENDBRANCH   1  15
TORSDOF 10
REMARK  Name = ../refined-set-2016/1g7q/1g7q_pocket.pdb
REMARK  282 active torsions:
REMARK  status: ('A' for Active; 'I' for Inactive)
REMARK    1  A    between atoms: _1  and  _3
REMARK    2  A    between atoms: _3  and  _4
REMARK    3  A    between atoms: _3  and  _6
REMARK    4  A    between atoms: _6  and  _7
REMARK    5  A    between atoms: _10  and  _12
REMARK    6  A    between atoms: _12  and  _13
REMARK    7  A    between atoms: _12  and  _15
REMARK    8  A    between atoms: _15  and  _16
REMARK    9  A    between atoms: _16  and  _17
REMARK   10  A    between atoms: _17  and  _18
REMARK   11  A    between atoms: _27  and  _29
REMARK   12  A    between atoms: _29  and  _30
REMARK   13  A    between atoms: _29  and  _32
REMARK   14  A    between atoms: _32  and  _33
REMARK   15  A    between atoms: _38  and  _39
REMARK   16  A    between atoms: _41  and  _43
REMARK   17  A    between atoms: _43  and  _44
REMARK   18  A    between atoms: _43  and  _46
REMARK   19  A    between atoms: _46  and  _47
REMARK   20  A    between atoms: _53  and  _55
REMARK   21  A    between atoms: _55  and  _56
REMARK   22  A    between atoms: _55  and  _58
REMARK   23  A    between atoms: _61  and  _63
REMARK   24  A    between atoms: _63  and  _64
REMARK   25  A    between atoms: _63  and  _66
REMARK   26  A    between atoms: _66  and  _67
REMARK   27  A    between atoms: _72  and  _73
REMARK   28  A    between atoms: _75  and  _77
REMARK   29  A    between atoms: _77  and  _78
REMARK   30  A    between atoms: _77  and  _80
REMARK   31  A    between atoms: _80  and  _81
REMARK   32  A    between atoms: _81  and  _82
REMARK   33  A    between atoms: _85  and  _87
REMARK   34  A    between atoms: _87  and  _88
REMARK   35  A    between atoms: _87  and  _90
REMARK   36  A    between atoms: _93  and  _95
REMARK   37  A    between atoms: _95  and  _96
REMARK   38  A    between atoms: _98  and  _100
REMARK   39  A    between atoms: _100  and  _101
REMARK   40  A    between atoms: _100  and  _103
REMARK   41  A    between atoms: _106  and  _108
REMARK   42  A    between atoms: _108  and  _109
REMARK   43  A    between atoms: _108  and  _111
REMARK   44  A    between atoms: _111  and  _112
REMARK   45  A    between atoms: _118  and  _120
REMARK   46  A    between atoms: _120  and  _121
REMARK   47  A    between atoms: _120  and  _123
REMARK   48  A    between atoms: _126  and  _128
REMARK   49  A    between atoms: _128  and  _129
REMARK   50  A    between atoms: _128  and  _131
REMARK   51  A    between atoms: _131  and  _132
REMARK   52  A    between atoms: _137  and  _138
REMARK   53  A    between atoms: _140  and  _142
REMARK   54  A    between atoms: _142  and  _143
REMARK   55  A    between atoms: _142  and  _145
REMARK   56  A    between atoms: _145  and  _146
REMARK   57  A    between atoms: _146  and  _147
REMARK   58  A    between atoms: _149  and  _151
REMARK   59  A    between atoms: _151  and  _152
REMARK   60  A    between atoms: _151  and  _154
REMARK   61  A    between atoms: _154  and  _155
REMARK   62  A    between atoms: _160  and  _161
REMARK   63  A    between atoms: _163  and  _165
REMARK   64  A    between atoms: _165  and  _166
REMARK   65  A    between atoms: _165  and  _168
REMARK   66  A    between atoms: _168  and  _169
REMARK   67  A    between atoms: _169  and  _170
REMARK   68  A    between atoms: _170  and  _171
REMARK   69  A    between atoms: _180  and  _182
REMARK   70  A    between atoms: _182  and  _183
REMARK   71  A    between atoms: _182  and  _185
REMARK   72  A    between atoms: _185  and  _186
REMARK   73  A    between atoms: _186  and  _187
REMARK   74  A    between atoms: _190  and  _192
REMARK   75  A    between atoms: _192  and  _193
REMARK   76  A    between atoms: _192  and  _195
REMARK   77  A    between atoms: _195  and  _196
REMARK   78  A    between atoms: _196  and  _197
REMARK   79  A    between atoms: _202  and  _204
REMARK   80  A    between atoms: _204  and  _205
REMARK   81  A    between atoms: _204  and  _207
REMARK   82  A    between atoms: _207  and  _208
REMARK   83  A    between atoms: _208  and  _209
REMARK   84  A    between atoms: _209  and  _210
REMARK   85  A    between atoms: _210  and  _211
REMARK   86  A    between atoms: _215  and  _217
REMARK   87  A    between atoms: _217  and  _218
REMARK   88  A    between atoms: _221  and  _223
REMARK   89  A    between atoms: _223  and  _224
REMARK   90  A    between atoms: _226  and  _228
REMARK   91  A    between atoms: _228  and  _229
REMARK   92  A    between atoms: _228  and  _231
REMARK   93  A    between atoms: _231  and  _232
REMARK   94  A    between atoms: _237  and  _239
REMARK   95  A    between atoms: _239  and  _240
REMARK   96  A    between atoms: _239  and  _242
REMARK   97  A    between atoms: _242  and  _243
REMARK   98  A    between atoms: _243  and  _244
REMARK   99  A    between atoms: _247  and  _249
REMARK  100  A    between atoms: _249  and  _250
REMARK  101  A    between atoms: _249  and  _252
REMARK  102  A    between atoms: _252  and  _253
REMARK  103  A    between atoms: _253  and  _254
REMARK  104  A    between atoms: _259  and  _261
REMARK  105  A    between atoms: _261  and  _262
REMARK  106  A    between atoms: _261  and  _264
REMARK  107  A    between atoms: _264  and  _265
REMARK  108  A    between atoms: _267  and  _269
REMARK  109  A    between atoms: _269  and  _270
REMARK  110  A    between atoms: _269  and  _272
REMARK  111  A    between atoms: _272  and  _273
REMARK  112  A    between atoms: _279  and  _281
REMARK  113  A    between atoms: _281  and  _282
REMARK  114  A    between atoms: _281  and  _284
REMARK  115  A    between atoms: _284  and  _285
REMARK  116  A    between atoms: _285  and  _286
REMARK  117  A    between atoms: _286  and  _287
REMARK  118  A    between atoms: _296  and  _298
REMARK  119  A    between atoms: _298  and  _299
REMARK  120  A    between atoms: _298  and  _301
REMARK  121  A    between atoms: _304  and  _306
REMARK  122  A    between atoms: _306  and  _307
REMARK  123  A    between atoms: _306  and  _309
REMARK  124  A    between atoms: _309  and  _310
REMARK  125  A    between atoms: _313  and  _315
REMARK  126  A    between atoms: _315  and  _316
REMARK  127  A    between atoms: _315  and  _318
REMARK  128  A    between atoms: _318  and  _319
REMARK  129  A    between atoms: _322  and  _324
REMARK  130  A    between atoms: _324  and  _325
REMARK  131  A    between atoms: _324  and  _327
REMARK  132  A    between atoms: _327  and  _328
REMARK  133  A    between atoms: _331  and  _333
REMARK  134  A    between atoms: _333  and  _334
REMARK  135  A    between atoms: _333  and  _336
REMARK  136  A    between atoms: _336  and  _337
REMARK  137  A    between atoms: _340  and  _342
REMARK  138  A    between atoms: _342  and  _343
REMARK  139  A    between atoms: _342  and  _345
REMARK  140  A    between atoms: _345  and  _346
REMARK  141  A    between atoms: _351  and  _352
REMARK  142  A    between atoms: _354  and  _356
REMARK  143  A    between atoms: _356  and  _357
REMARK  144  A    between atoms: _356  and  _359
REMARK  145  A    between atoms: _359  and  _360
REMARK  146  A    between atoms: _363  and  _365
REMARK  147  A    between atoms: _365  and  _366
REMARK  148  A    between atoms: _365  and  _368
REMARK  149  A    between atoms: _371  and  _373
REMARK  150  A    between atoms: _373  and  _374
REMARK  151  A    between atoms: _373  and  _376
REMARK  152  A    between atoms: _376  and  _377
REMARK  153  A    between atoms: _380  and  _382
REMARK  154  A    between atoms: _382  and  _383
REMARK  155  A    between atoms: _382  and  _385
REMARK  156  A    between atoms: _385  and  _386
REMARK  157  A    between atoms: _388  and  _390
REMARK  158  A    between atoms: _390  and  _391
REMARK  159  A    between atoms: _393  and  _395
REMARK  160  A    between atoms: _395  and  _396
REMARK  161  A    between atoms: _395  and  _398
REMARK  162  A    between atoms: _398  and  _399
REMARK  163  A    between atoms: _399  and  _640
REMARK  164  A    between atoms: _400  and  _402
REMARK  165  A    between atoms: _402  and  _403
REMARK  166  A    between atoms: _402  and  _405
REMARK  167  A    between atoms: _405  and  _406
REMARK  168  A    between atoms: _411  and  _412
REMARK  169  A    between atoms: _414  and  _416
REMARK  170  A    between atoms: _416  and  _417
REMARK  171  A    between atoms: _416  and  _419
REMARK  172  A    between atoms: _419  and  _420
REMARK  173  A    between atoms: _420  and  _421
REMARK  174  A    between atoms: _426  and  _428
REMARK  175  A    between atoms: _428  and  _429
REMARK  176  A    between atoms: _428  and  _431
REMARK  177  A    between atoms: _431  and  _432
REMARK  178  A    between atoms: _437  and  _438
REMARK  179  A    between atoms: _440  and  _442
REMARK  180  A    between atoms: _442  and  _443
REMARK  181  A    between atoms: _442  and  _445
REMARK  182  A    between atoms: _445  and  _446
REMARK  183  A    between atoms: _451  and  _452
REMARK  184  A    between atoms: _454  and  _456
REMARK  185  A    between atoms: _456  and  _457
REMARK  186  A    between atoms: _456  and  _459
REMARK  187  A    between atoms: _459  and  _460
REMARK  188  A    between atoms: _463  and  _465
REMARK  189  A    between atoms: _465  and  _466
REMARK  190  A    between atoms: _469  and  _471
REMARK  191  A    between atoms: _471  and  _472
REMARK  192  A    between atoms: _475  and  _477
REMARK  193  A    between atoms: _477  and  _478
REMARK  194  A    between atoms: _477  and  _480
REMARK  195  A    between atoms: _480  and  _481
REMARK  196  A    between atoms: _484  and  _486
REMARK  197  A    between atoms: _486  and  _487
REMARK  198  A    between atoms: _486  and  _489
REMARK  199  A    between atoms: _489  and  _490
REMARK  200  A    between atoms: _493  and  _495
REMARK  201  A    between atoms: _495  and  _496
REMARK  202  A    between atoms: _495  and  _498
REMARK  203  A    between atoms: _498  and  _499
REMARK  204  A    between atoms: _502  and  _504
REMARK  205  A    between atoms: _504  and  _505
REMARK  206  A    between atoms: _504  and  _507
REMARK  207  A    between atoms: _507  and  _508
REMARK  208  A    between atoms: _508  and  _509
REMARK  209  A    between atoms: _509  and  _510
REMARK  210  A    between atoms: _510  and  _511
REMARK  211  A    between atoms: _515  and  _517
REMARK  212  A    between atoms: _517  and  _518
REMARK  213  A    between atoms: _517  and  _520
REMARK  214  A    between atoms: _520  and  _521
REMARK  215  A    between atoms: _526  and  _528
REMARK  216  A    between atoms: _528  and  _529
REMARK  217  A    between atoms: _528  and  _531
REMARK  218  A    between atoms: _531  and  _532
REMARK  219  A    between atoms: _532  and  _533
REMARK  220  A    between atoms: _533  and  _534
REMARK  221  A    between atoms: _534  and  _535
REMARK  222  A    between atoms: _539  and  _541
REMARK  223  A    between atoms: _541  and  _542
REMARK  224  A    between atoms: _541  and  _544
REMARK  225  A    between atoms: _544  and  _545
REMARK  226  A    between atoms: _555  and  _557
REMARK  227  A    between atoms: _557  and  _558
REMARK  228  A    between atoms: _561  and  _563
REMARK  229  A    between atoms: _563  and  _564
REMARK  230  A    between atoms: _566  and  _568
REMARK  231  A    between atoms: _568  and  _569
REMARK  232  A    between atoms: _568  and  _571
REMARK  233  A    between atoms: _571  and  _572
REMARK  234  A    between atoms: _572  and  _573
REMARK  235  A    between atoms: _576  and  _578
REMARK  236  A    between atoms: _578  and  _579
REMARK  237  A    between atoms: _578  and  _581
REMARK  238  A    between atoms: _581  and  _582
REMARK  239  A    between atoms: _582  and  _583
REMARK  240  A    between atoms: _583  and  _584
REMARK  241  A    between atoms: _593  and  _595
REMARK  242  A    between atoms: _595  and  _596
REMARK  243  A    between atoms: _595  and  _598
REMARK  244  A    between atoms: _598  and  _599
REMARK  245  A    between atoms: _602  and  _604
REMARK  246  A    between atoms: _604  and  _605
REMARK  247  A    between atoms: _604  and  _607
REMARK  248  A    between atoms: _607  and  _608
REMARK  249  A    between atoms: _613  and  _614
REMARK  250  A    between atoms: _616  and  _618
REMARK  251  A    between atoms: _618  and  _619
REMARK  252  A    between atoms: _618  and  _621
REMARK  253  A    between atoms: _621  and  _622
REMARK  254  A    between atoms: _625  and  _627
REMARK  255  A    between atoms: _627  and  _628
REMARK  256  A    between atoms: _627  and  _630
REMARK  257  A    between atoms: _630  and  _631
REMARK  258  A    between atoms: _634  and  _636
REMARK  259  A    between atoms: _636  and  _637
REMARK  260  A    between atoms: _636  and  _639
REMARK  261  A    between atoms: _639  and  _640
REMARK  262  A    between atoms: _641  and  _643
REMARK  263  A    between atoms: _643  and  _644
REMARK  264  A    between atoms: _643  and  _646
REMARK  265  A    between atoms: _649  and  _651
REMARK  266  A    between atoms: _651  and  _652
REMARK  267  A    between atoms: _651  and  _654
REMARK  268  A    between atoms: _654  and  _655
REMARK  269  A    between atoms: _655  and  _656
REMARK  270  A    between atoms: _659  and  _661
REMARK  271  A    between atoms: _661  and  _662
REMARK  272  A    between atoms: _661  and  _664
REMARK  273  A    between atoms: _664  and  _665
REMARK  274  A    between atoms: _675  and  _677
REMARK  275  A    between atoms: _677  and  _678
REMARK  276  A    between atoms: _677  and  _680
REMARK  277  A    between atoms: _680  and  _681
REMARK  278  A    between atoms: _684  and  _686
REMARK  279  A    between atoms: _686  and  _687
REMARK  280  A    between atoms: _686  and  _689
REMARK  281  A    between atoms: _689  and  _690
REMARK  282  A    between atoms: _695  and  _696
REMARK                            x       y       z     vdW  Elec       q    Type
REMARK                         _______ _______ _______ _____ _____    ______ ____
ROOT
ATOM      1  CA  TYR A   1      52.403  62.061  -3.652  0.00  0.00    +0.149 C 
ENDROOT
BRANCH   1   2
ATOM      2  C   TYR A   1      53.356  60.891  -3.396  0.00  0.00    +0.239 C 
ATOM      3  O   TYR A   1      53.778  60.658  -2.263  0.00  0.00    -0.274 OA
ATOM      4  N   LEU A   2      53.692  60.157  -4.454  0.00  0.00    -0.298 N 
ATOM      5  H   LEU A   2      53.323  60.417  -5.391  0.00  0.00    +0.150 HD
BRANCH   4   6
ATOM      6  CA  LEU A   2      54.566  58.997  -4.330  0.00  0.00    +0.137 C 
BRANCH   6   7
ATOM      7  C   LEU A   2      55.973  59.309  -3.831  0.00  0.00    +0.227 C 
ATOM      8  O   LEU A   2      56.482  58.631  -2.939  0.00  0.00    -0.286 OA
ENDBRANCH   6   7
BRANCH   6   9
ATOM      9  CB  LEU A   2      54.644  58.253  -5.669  0.00  0.00    +0.028 C 
BRANCH   9  10
ATOM     10  CG  LEU A   2      53.320  57.644  -6.141  0.00  0.00    +0.002 C 
ATOM     11  CD2 LEU A   2      52.870  56.568  -5.160  0.00  0.00    +0.000 C 
ATOM     12  CD1 LEU A   2      53.486  57.060  -7.533  0.00  0.00    +0.000 C 
ENDBRANCH   9  10
ENDBRANCH   6   9
ENDBRANCH   4   6
ENDBRANCH   1   2
BRANCH   1  13
ATOM     13  N   TYR A   1      52.859  62.865  -4.781  0.00  0.00    -0.238 NA
ATOM     14  H   TYR A   1      52.286  62.901  -5.648  0.00  0.00    +0.142 HD
ENDBRANCH   1  13
BRANCH   1  15
ATOM     15  CB  TYR A   1      50.995  61.505  -3.915  0.00  0.00    +0.053 C 
BRANCH  15  16
ATOM     16  CG  TYR A   1      50.620  60.380  -2.976  0.00  0.00    -0.020 A 
ATOM     17  CD2 TYR A   1      50.213  60.642  -1.666  0.00  0.00    -0.001 A 
ATOM     18  CE2 TYR A   1      49.964  59.605  -0.769  0.00  0.00    +0.036 A 
ATOM     19  CZ  TYR A   1      50.124  58.291  -1.180  0.00  0.00    +0.134 A 
ATOM     20  CE1 TYR A   1      50.520  58.003  -2.475  0.00  0.00    +0.036 A 
ATOM     21  CD1 TYR A   1      50.762  59.048  -3.368  0.00  0.00    -0.001 A 
BRANCH  19  22
ATOM     22  OH  TYR A   1      49.909  57.262  -0.290  0.00  0.00    -0.506 OA
ATOM     23  HH  TYR A   1      49.633  57.636   0.584  0.00  0.00    +0.292 HD
ENDBRANCH  19  22
ENDBRANCH  15  16
ENDBRANCH   1  15
TORSDOF 9
REMARK  Name = ../refined-set-2016/1g7q/1g7q_pocket.pdb
REMARK  282 active torsions:
REMARK  status: ('A' for Active; 'I' for Inactive)
REMARK    1  A    between atoms: _1  and  _3
REMARK    2  A    between atoms: _3  and  _4
REMARK    3  A    between atoms: _3  and  _6
REMARK    4  A    between atoms: _6  and  _7
REMARK    5  A    between atoms: _10  and  _12
REMARK    6  A    between atoms: _12  and  _13
REMARK    7  A    between atoms: _12  and  _15
REMARK    8  A    between atoms: _15  and  _16
REMARK    9  A    between atoms: _16  and  _17
REMARK   10  A    between atoms: _17  and  _18
REMARK   11  A    between atoms: _27  and  _29
REMARK   12  A    between atoms: _29  and  _30
REMARK   13  A    between atoms: _29  and  _32
REMARK   14  A    between atoms: _32  and  _33
REMARK   15  A    between atoms: _38  and  _39
REMARK   16  A    between atoms: _41  and  _43
REMARK   17  A    between atoms: _43  and  _44
REMARK   18  A    between atoms: _43  and  _46
REMARK   19  A    between atoms: _46  and  _47
REMARK   20  A    between atoms: _53  and  _55
REMARK   21  A    between atoms: _55  and  _56
REMARK   22  A    between atoms: _55  and  _58
REMARK   23  A    between atoms: _61  and  _63
REMARK   24  A    between atoms: _63  and  _64
REMARK   25  A    between atoms: _63  and  _66
REMARK   26  A    between atoms: _66  and  _67
REMARK   27  A    between atoms: _72  and  _73
REMARK   28  A    between atoms: _75  and  _77
REMARK   29  A    between atoms: _77  and  _78
REMARK   30  A    between atoms: _77  and  _80
REMARK   31  A    between atoms: _80  and  _81
REMARK   32  A    between atoms: _81  and  _82
REMARK   33  A    between atoms: _85  and  _87
REMARK   34  A    between atoms: _87  and  _88
REMARK   35  A    between atoms: _87  and  _90
REMARK   36  A    between atoms: _93  and  _95
REMARK   37  A    between atoms: _95  and  _96
REMARK   38  A    between atoms: _98  and  _100
REMARK   39  A    between atoms: _100  and  _101
REMARK   40  A    between atoms: _100  and  _103
REMARK   41  A    between atoms: _106  and  _108
REMARK   42  A    between atoms: _108  and  _109
REMARK   43  A    between atoms: _108  and  _111
REMARK   44  A    between atoms: _111  and  _112
REMARK   45  A    between atoms: _118  and  _120
REMARK   46  A    between atoms: _120  and  _121
REMARK   47  A    between atoms: _120  and  _123
REMARK   48  A    between atoms: _126  and  _128
REMARK   49  A    between atoms: _128  and  _129
REMARK   50  A    between atoms: _128  and  _131
REMARK   51  A    between atoms: _131  and  _132
REMARK   52  A    between atoms: _137  and  _138
REMARK   53  A    between atoms: _140  and  _142
REMARK   54  A    between atoms: _142  and  _143
REMARK   55  A    between atoms: _142  and  _145
REMARK   56  A    between atoms: _145  and  _146
REMARK   57  A    between atoms: _146  and  _147
REMARK   58  A    between atoms: _149  and  _151
REMARK   59  A    between atoms: _151  and  _152
REMARK   60  A    between atoms: _151  and  _154
REMARK   61  A    between atoms: _154  and  _155
REMARK   62  A    between atoms: _160  and  _161
REMARK   63  A    between atoms: _163  and  _165
REMARK   64  A    between atoms: _165  and  _166
REMARK   65  A    between atoms: _165  and  _168
REMARK   66  A    between atoms: _168  and  _169
REMARK   67  A    between atoms: _169  and  _170
REMARK   68  A    between atoms: _170  and  _171
REMARK   69  A    between atoms: _180  and  _182
REMARK   70  A    between atoms: _182  and  _183
REMARK   71  A    between atoms: _182  and  _185
REMARK   72  A    between atoms: _185  and  _186
REMARK   73  A    between atoms: _186  and  _187
REMARK   74  A    between atoms: _190  and  _192
REMARK   75  A    between atoms: _192  and  _193
REMARK   76  A    between atoms: _192  and  _195
REMARK   77  A    between atoms: _195  and  _196
REMARK   78  A    between atoms: _196  and  _197
REMARK   79  A    between atoms: _202  and  _204
REMARK   80  A    between atoms: _204  and  _205
REMARK   81  A    between atoms: _204  and  _207
REMARK   82  A    between atoms: _207  and  _208
REMARK   83  A    between atoms: _208  and  _209
REMARK   84  A    between atoms: _209  and  _210
REMARK   85  A    between atoms: _210  and  _211
REMARK   86  A    between atoms: _215  and  _217
REMARK   87  A    between atoms: _217  and  _218
REMARK   88  A    between atoms: _221  and  _223
REMARK   89  A    between atoms: _223  and  _224
REMARK   90  A    between atoms: _226  and  _228
REMARK   91  A    between atoms: _228  and  _229
REMARK   92  A    between atoms: _228  and  _231
REMARK   93  A    between atoms: _231  and  _232
REMARK   94  A    between atoms: _237  and  _239
REMARK   95  A    between atoms: _239  and  _240
REMARK   96  A    between atoms: _239  and  _242
REMARK   97  A    between atoms: _242  and  _243
REMARK   98  A    between atoms: _243  and  _244
REMARK   99  A    between atoms: _247  and  _249
REMARK  100  A    between atoms: _249  and  _250
REMARK  101  A    between atoms: _249  and  _252
REMARK  102  A    between atoms: _252  and  _253
REMARK  103  A    between atoms: _253  and  _254
REMARK  104  A    between atoms: _259  and  _261
REMARK  105  A    between atoms: _261  and  _262
REMARK  106  A    between atoms: _261  and  _264
REMARK  107  A    between atoms: _264  and  _265
REMARK  108  A    between atoms: _267  and  _269
REMARK  109  A    between atoms: _269  and  _270
REMARK  110  A    between atoms: _269  and  _272
REMARK  111  A    between atoms: _272  and  _273
REMARK  112  A    between atoms: _279  and  _281
REMARK  113  A    between atoms: _281  and  _282
REMARK  114  A    between atoms: _281  and  _284
REMARK  115  A    between atoms: _284  and  _285
REMARK  116  A    between atoms: _285  and  _286
REMARK  117  A    between atoms: _286  and  _287
REMARK  118  A    between atoms: _296  and  _298
REMARK  119  A    between atoms: _298  and  _299
REMARK  120  A    between atoms: _298  and  _301
REMARK  121  A    between atoms: _304  and  _306
REMARK  122  A    between atoms: _306  and  _307
REMARK  123  A    between atoms: _306  and  _309
REMARK  124  A    between atoms: _309  and  _310
REMARK  125  A    between atoms: _313  and  _315
REMARK  126  A    between atoms: _315  and  _316
REMARK  127  A    between atoms: _315  and  _318
REMARK  128  A    between atoms: _318  and  _319
REMARK  129  A    between atoms: _322  and  _324
REMARK  130  A    between atoms: _324  and  _325
REMARK  131  A    between atoms: _324  and  _327
REMARK  132  A    between atoms: _327  and  _328
REMARK  133  A    between atoms: _331  and  _333
REMARK  134  A    between atoms: _333  and  _334
REMARK  135  A    between atoms: _333  and  _336
REMARK  136  A    between atoms: _336  and  _337
REMARK  137  A    between atoms: _340  and  _342
REMARK  138  A    between atoms: _342  and  _343
REMARK  139  A    between atoms: _342  and  _345
REMARK  140  A    between atoms: _345  and  _346
REMARK  141  A    between atoms: _351  and  _352
REMARK  142  A    between atoms: _354  and  _356
REMARK  143  A    between atoms: _356  and  _357
REMARK  144  A    between atoms: _356  and  _359
REMARK  145  A    between atoms: _359  and  _360
REMARK  146  A    between atoms: _363  and  _365
REMARK  147  A    between atoms: _365  and  _366
REMARK  148  A    between atoms: _365  and  _368
REMARK  149  A    between atoms: _371  and  _373
REMARK  150  A    between atoms: _373  and  _374
REMARK  151  A    between atoms: _373  and  _376
REMARK  152  A    between atoms: _376  and  _377
REMARK  153  A    between atoms: _380  and  _382
REMARK  154  A    between atoms: _382  and  _383
REMARK  155  A    between atoms: _382  and  _385
REMARK  156  A    between atoms: _385  and  _386
REMARK  157  A    between atoms: _388  and  _390
REMARK  158  A    between atoms: _390  and  _391
REMARK  159  A    between atoms: _393  and  _395
REMARK  160  A    between atoms: _395  and  _396
REMARK  161  A    between atoms: _395  and  _398
REMARK  162  A    between atoms: _398  and  _399
REMARK  163  A    between atoms: _399  and  _640
REMARK  164  A    between atoms: _400  and  _402
REMARK  165  A    between atoms: _402  and  _403
REMARK  166  A    between atoms: _402  and  _405
REMARK  167  A    between atoms: _405  and  _406
REMARK  168  A    between atoms: _411  and  _412
REMARK  169  A    between atoms: _414  and  _416
REMARK  170  A    between atoms: _416  and  _417
REMARK  171  A    between atoms: _416  and  _419
REMARK  172  A    between atoms: _419  and  _420
REMARK  173  A    between atoms: _420  and  _421
REMARK  174  A    between atoms: _426  and  _428
REMARK  175  A    between atoms: _428  and  _429
REMARK  176  A    between atoms: _428  and  _431
REMARK  177  A    between atoms: _431  and  _432
REMARK  178  A    between atoms: _437  and  _438
REMARK  179  A    between atoms: _440  and  _442
REMARK  180  A    between atoms: _442  and  _443
REMARK  181  A    between atoms: _442  and  _445
REMARK  182  A    between atoms: _445  and  _446
REMARK  183  A    between atoms: _451  and  _452
REMARK  184  A    between atoms: _454  and  _456
REMARK  185  A    between atoms: _456  and  _457
REMARK  186  A    between atoms: _456  and  _459
REMARK  187  A    between atoms: _459  and  _460
REMARK  188  A    between atoms: _463  and  _465
REMARK  189  A    between atoms: _465  and  _466
REMARK  190  A    between atoms: _469  and  _471
REMARK  191  A    between atoms: _471  and  _472
REMARK  192  A    between atoms: _475  and  _477
REMARK  193  A    between atoms: _477  and  _478
REMARK  194  A    between atoms: _477  and  _480
REMARK  195  A    between atoms: _480  and  _481
REMARK  196  A    between atoms: _484  and  _486
REMARK  197  A    between atoms: _486  and  _487
REMARK  198  A    between atoms: _486  and  _489
REMARK  199  A    between atoms: _489  and  _490
REMARK  200  A    between atoms: _493  and  _495
REMARK  201  A    between atoms: _495  and  _496
REMARK  202  A    between atoms: _495  and  _498
REMARK  203  A    between atoms: _498  and  _499
REMARK  204  A    between atoms: _502  and  _504
REMARK  205  A    between atoms: _504  and  _505
REMARK  206  A    between atoms: _504  and  _507
REMARK  207  A    between atoms: _507  and  _508
REMARK  208  A    between atoms: _508  and  _509
REMARK  209  A    between atoms: _509  and  _510
REMARK  210  A    between atoms: _510  and  _511
REMARK  211  A    between atoms: _515  and  _517
REMARK  212  A    between atoms: _517  and  _518
REMARK  213  A    between atoms: _517  and  _520
REMARK  214  A    between atoms: _520  and  _521
REMARK  215  A    between atoms: _526  and  _528
REMARK  216  A    between atoms: _528  and  _529
REMARK  217  A    between atoms: _528  and  _531
REMARK  218  A    between atoms: _531  and  _532
REMARK  219  A    between atoms: _532  and  _533
REMARK  220  A    between atoms: _533  and  _534
REMARK  221  A    between atoms: _534  and  _535
REMARK  222  A    between atoms: _539  and  _541
REMARK  223  A    between atoms: _541  and  _542
REMARK  224  A    between atoms: _541  and  _544
REMARK  225  A    between atoms: _544  and  _545
REMARK  226  A    between atoms: _555  and  _557
REMARK  227  A    between atoms: _557  and  _558
REMARK  228  A    between atoms: _561  and  _563
REMARK  229  A    between atoms: _563  and  _564
REMARK  230  A    between atoms: _566  and  _568
REMARK  231  A    between atoms: _568  and  _569
REMARK  232  A    between atoms: _568  and  _571
REMARK  233  A    between atoms: _571  and  _572
REMARK  234  A    between atoms: _572  and  _573
REMARK  235  A    between atoms: _576  and  _578
REMARK  236  A    between atoms: _578  and  _579
REMARK  237  A    between atoms: _578  and  _581
REMARK  238  A    between atoms: _581  and  _582
REMARK  239  A    between atoms: _582  and  _583
REMARK  240  A    between atoms: _583  and  _584
REMARK  241  A    between atoms: _593  and  _595
REMARK  242  A    between atoms: _595  and  _596
REMARK  243  A    between atoms: _595  and  _598
REMARK  244  A    between atoms: _598  and  _599
REMARK  245  A    between atoms: _602  and  _604
REMARK  246  A    between atoms: _604  and  _605
REMARK  247  A    between atoms: _604  and  _607
REMARK  248  A    between atoms: _607  and  _608
REMARK  249  A    between atoms: _613  and  _614
REMARK  250  A    between atoms: _616  and  _618
REMARK  251  A    between atoms: _618  and  _619
REMARK  252  A    between atoms: _618  and  _621
REMARK  253  A    between atoms: _621  and  _622
REMARK  254  A    between atoms: _625  and  _627
REMARK  255  A    between atoms: _627  and  _628
REMARK  256  A    between atoms: _627  and  _630
REMARK  257  A    between atoms: _630  and  _631
REMARK  258  A    between atoms: _634  and  _636
REMARK  259  A    between atoms: _636  and  _637
REMARK  260  A    between atoms: _636  and  _639
REMARK  261  A    between atoms: _639  and  _640
REMARK  262  A    between atoms: _641  and  _643
REMARK  263  A    between atoms: _643  and  _644
REMARK  264  A    between atoms: _643  and  _646
REMARK  265  A    between atoms: _649  and  _651
REMARK  266  A    between atoms: _651  and  _652
REMARK  267  A    between atoms: _651  and  _654
REMARK  268  A    between atoms: _654  and  _655
REMARK  269  A    between atoms: _655  and  _656
REMARK  270  A    between atoms: _659  and  _661
REMARK  271  A    between atoms: _661  and  _662
REMARK  272  A    between atoms: _661  and  _664
REMARK  273  A    between atoms: _664  and  _665
REMARK  274  A    between atoms: _675  and  _677
REMARK  275  A    between atoms: _677  and  _678
REMARK  276  A    between atoms: _677  and  _680
REMARK  277  A    between atoms: _680  and  _681
REMARK  278  A    between atoms: _684  and  _686
REMARK  279  A    between atoms: _686  and  _687
REMARK  280  A    between atoms: _686  and  _689
REMARK  281  A    between atoms: _689  and  _690
REMARK  282  A    between atoms: _695  and  _696
REMARK                            x       y       z     vdW  Elec       q    Type
REMARK                         _______ _______ _______ _____ _____    ______ ____
ROOT
ATOM      1  CG  TYR A   1      53.255  54.875   8.820  0.00  0.00    -0.020 A 
ATOM      2  CD2 TYR A   1      52.548  55.675   9.719  0.00  0.00    -0.001 A 
ATOM      3  CE2 TYR A   1      51.468  56.465   9.289  0.00  0.00    +0.036 A 
ATOM      4  CZ  TYR A   1      51.102  56.443   7.949  0.00  0.00    +0.134 A 
ATOM      5  CE1 TYR A   1      51.798  55.652   7.046  0.00  0.00    +0.036 A 
ATOM      6  CD1 TYR A   1      52.863  54.879   7.484  0.00  0.00    -0.001 A 
ENDROOT
BRANCH   4   7
ATOM      7  OH  TYR A   1      50.041  57.198   7.505  0.00  0.00    -0.506 OA
ATOM      8  HH  TYR A   1      49.655  57.701   8.265  0.00  0.00    +0.292 HD
ENDBRANCH   4   7
BRANCH   1   9
ATOM      9  CB  TYR A   1      54.398  54.003   9.284  0.00  0.00    +0.051 C 
BRANCH   9  10
ATOM     10  CA  TYR A   1      55.287  54.636  10.355  0.00  0.00    +0.137 C 
BRANCH  10  11
ATOM     11  N   TYR A   1      55.913  55.856   9.859  0.00  0.00    -0.239 NA
ATOM     12  H   TYR A   1      55.805  56.125   8.860  0.00  0.00    +0.142 HD
ENDBRANCH  10  11
BRANCH  10  13
ATOM     13  C   TYR A   1      56.353  53.636  10.794  0.00  0.00    +0.224 C 
ATOM     14  O   TYR A   1      56.186  52.944  11.798  0.00  0.00    -0.287 OA
ENDBRANCH  10  13
ENDBRANCH   9  10
ENDBRANCH   1   9
TORSDOF 5
REMARK  Name = ../refined-set-2016/1g7q/1g7q_pocket.pdb
REMARK  282 active torsions:
REMARK  status: ('A' for Active; 'I' for Inactive)
REMARK    1  A    between atoms: _1  and  _3
REMARK    2  A    between atoms: _3  and  _4
REMARK    3  A    between atoms: _3  and  _6
REMARK    4  A    between atoms: _6  and  _7
REMARK    5  A    between atoms: _10  and  _12
REMARK    6  A    between atoms: _12  and  _13
REMARK    7  A    between atoms: _12  and  _15
REMARK    8  A    between atoms: _15  and  _16
REMARK    9  A    between atoms: _16  and  _17
REMARK   10  A    between atoms: _17  and  _18
REMARK   11  A    between atoms: _27  and  _29
REMARK   12  A    between atoms: _29  and  _30
REMARK   13  A    between atoms: _29  and  _32
REMARK   14  A    between atoms: _32  and  _33
REMARK   15  A    between atoms: _38  and  _39
REMARK   16  A    between atoms: _41  and  _43
REMARK   17  A    between atoms: _43  and  _44
REMARK   18  A    between atoms: _43  and  _46
REMARK   19  A    between atoms: _46  and  _47
REMARK   20  A    between atoms: _53  and  _55
REMARK   21  A    between atoms: _55  and  _56
REMARK   22  A    between atoms: _55  and  _58
REMARK   23  A    between atoms: _61  and  _63
REMARK   24  A    between atoms: _63  and  _64
REMARK   25  A    between atoms: _63  and  _66
REMARK   26  A    between atoms: _66  and  _67
REMARK   27  A    between atoms: _72  and  _73
REMARK   28  A    between atoms: _75  and  _77
REMARK   29  A    between atoms: _77  and  _78
REMARK   30  A    between atoms: _77  and  _80
REMARK   31  A    between atoms: _80  and  _81
REMARK   32  A    between atoms: _81  and  _82
REMARK   33  A    between atoms: _85  and  _87
REMARK   34  A    between atoms: _87  and  _88
REMARK   35  A    between atoms: _87  and  _90
REMARK   36  A    between atoms: _93  and  _95
REMARK   37  A    between atoms: _95  and  _96
REMARK   38  A    between atoms: _98  and  _100
REMARK   39  A    between atoms: _100  and  _101
REMARK   40  A    between atoms: _100  and  _103
REMARK   41  A    between atoms: _106  and  _108
REMARK   42  A    between atoms: _108  and  _109
REMARK   43  A    between atoms: _108  and  _111
REMARK   44  A    between atoms: _111  and  _112
REMARK   45  A    between atoms: _118  and  _120
REMARK   46  A    between atoms: _120  and  _121
REMARK   47  A    between atoms: _120  and  _123
REMARK   48  A    between atoms: _126  and  _128
REMARK   49  A    between atoms: _128  and  _129
REMARK   50  A    between atoms: _128  and  _131
REMARK   51  A    between atoms: _131  and  _132
REMARK   52  A    between atoms: _137  and  _138
REMARK   53  A    between atoms: _140  and  _142
REMARK   54  A    between atoms: _142  and  _143
REMARK   55  A    between atoms: _142  and  _145
REMARK   56  A    between atoms: _145  and  _146
REMARK   57  A    between atoms: _146  and  _147
REMARK   58  A    between atoms: _149  and  _151
REMARK   59  A    between atoms: _151  and  _152
REMARK   60  A    between atoms: _151  and  _154
REMARK   61  A    between atoms: _154  and  _155
REMARK   62  A    between atoms: _160  and  _161
REMARK   63  A    between atoms: _163  and  _165
REMARK   64  A    between atoms: _165  and  _166
REMARK   65  A    between atoms: _165  and  _168
REMARK   66  A    between atoms: _168  and  _169
REMARK   67  A    between atoms: _169  and  _170
REMARK   68  A    between atoms: _170  and  _171
REMARK   69  A    between atoms: _180  and  _182
REMARK   70  A    between atoms: _182  and  _183
REMARK   71  A    between atoms: _182  and  _185
REMARK   72  A    between atoms: _185  and  _186
REMARK   73  A    between atoms: _186  and  _187
REMARK   74  A    between atoms: _190  and  _192
REMARK   75  A    between atoms: _192  and  _193
REMARK   76  A    between atoms: _192  and  _195
REMARK   77  A    between atoms: _195  and  _196
REMARK   78  A    between atoms: _196  and  _197
REMARK   79  A    between atoms: _202  and  _204
REMARK   80  A    between atoms: _204  and  _205
REMARK   81  A    between atoms: _204  and  _207
REMARK   82  A    between atoms: _207  and  _208
REMARK   83  A    between atoms: _208  and  _209
REMARK   84  A    between atoms: _209  and  _210
REMARK   85  A    between atoms: _210  and  _211
REMARK   86  A    between atoms: _215  and  _217
REMARK   87  A    between atoms: _217  and  _218
REMARK   88  A    between atoms: _221  and  _223
REMARK   89  A    between atoms: _223  and  _224
REMARK   90  A    between atoms: _226  and  _228
REMARK   91  A    between atoms: _228  and  _229
REMARK   92  A    between atoms: _228  and  _231
REMARK   93  A    between atoms: _231  and  _232
REMARK   94  A    between atoms: _237  and  _239
REMARK   95  A    between atoms: _239  and  _240
REMARK   96  A    between atoms: _239  and  _242
REMARK   97  A    between atoms: _242  and  _243
REMARK   98  A    between atoms: _243  and  _244
REMARK   99  A    between atoms: _247  and  _249
REMARK  100  A    between atoms: _249  and  _250
REMARK  101  A    between atoms: _249  and  _252
REMARK  102  A    between atoms: _252  and  _253
REMARK  103  A    between atoms: _253  and  _254
REMARK  104  A    between atoms: _259  and  _261
REMARK  105  A    between atoms: _261  and  _262
REMARK  106  A    between atoms: _261  and  _264
REMARK  107  A    between atoms: _264  and  _265
REMARK  108  A    between atoms: _267  and  _269
REMARK  109  A    between atoms: _269  and  _270
REMARK  110  A    between atoms: _269  and  _272
REMARK  111  A    between atoms: _272  and  _273
REMARK  112  A    between atoms: _279  and  _281
REMARK  113  A    between atoms: _281  and  _282
REMARK  114  A    between atoms: _281  and  _284
REMARK  115  A    between atoms: _284  and  _285
REMARK  116  A    between atoms: _285  and  _286
REMARK  117  A    between atoms: _286  and  _287
REMARK  118  A    between atoms: _296  and  _298
REMARK  119  A    between atoms: _298  and  _299
REMARK  120  A    between atoms: _298  and  _301
REMARK  121  A    between atoms: _304  and  _306
REMARK  122  A    between atoms: _306  and  _307
REMARK  123  A    between atoms: _306  and  _309
REMARK  124  A    between atoms: _309  and  _310
REMARK  125  A    between atoms: _313  and  _315
REMARK  126  A    between atoms: _315  and  _316
REMARK  127  A    between atoms: _315  and  _318
REMARK  128  A    between atoms: _318  and  _319
REMARK  129  A    between atoms: _322  and  _324
REMARK  130  A    between atoms: _324  and  _325
REMARK  131  A    between atoms: _324  and  _327
REMARK  132  A    between atoms: _327  and  _328
REMARK  133  A    between atoms: _331  and  _333
REMARK  134  A    between atoms: _333  and  _334
REMARK  135  A    between atoms: _333  and  _336
REMARK  136  A    between atoms: _336  and  _337
REMARK  137  A    between atoms: _340  and  _342
REMARK  138  A    between atoms: _342  and  _343
REMARK  139  A    between atoms: _342  and  _345
REMARK  140  A    between atoms: _345  and  _346
REMARK  141  A    between atoms: _351  and  _352
REMARK  142  A    between atoms: _354  and  _356
REMARK  143  A    between atoms: _356  and  _357
REMARK  144  A    between atoms: _356  and  _359
REMARK  145  A    between atoms: _359  and  _360
REMARK  146  A    between atoms: _363  and  _365
REMARK  147  A    between atoms: _365  and  _366
REMARK  148  A    between atoms: _365  and  _368
REMARK  149  A    between atoms: _371  and  _373
REMARK  150  A    between atoms: _373  and  _374
REMARK  151  A    between atoms: _373  and  _376
REMARK  152  A    between atoms: _376  and  _377
REMARK  153  A    between atoms: _380  and  _382
REMARK  154  A    between atoms: _382  and  _383
REMARK  155  A    between atoms: _382  and  _385
REMARK  156  A    between atoms: _385  and  _386
REMARK  157  A    between atoms: _388  and  _390
REMARK  158  A    between atoms: _390  and  _391
REMARK  159  A    between atoms: _393  and  _395
REMARK  160  A    between atoms: _395  and  _396
REMARK  161  A    between atoms: _395  and  _398
REMARK  162  A    between atoms: _398  and  _399
REMARK  163  A    between atoms: _399  and  _640
REMARK  164  A    between atoms: _400  and  _402
REMARK  165  A    between atoms: _402  and  _403
REMARK  166  A    between atoms: _402  and  _405
REMARK  167  A    between atoms: _405  and  _406
REMARK  168  A    between atoms: _411  and  _412
REMARK  169  A    between atoms: _414  and  _416
REMARK  170  A    between atoms: _416  and  _417
REMARK  171  A    between atoms: _416  and  _419
REMARK  172  A    between atoms: _419  and  _420
REMARK  173  A    between atoms: _420  and  _421
REMARK  174  A    between atoms: _426  and  _428
REMARK  175  A    between atoms: _428  and  _429
REMARK  176  A    between atoms: _428  and  _431
REMARK  177  A    between atoms: _431  and  _432
REMARK  178  A    between atoms: _437  and  _438
REMARK  179  A    between atoms: _440  and  _442
REMARK  180  A    between atoms: _442  and  _443
REMARK  181  A    between atoms: _442  and  _445
REMARK  182  A    between atoms: _445  and  _446
REMARK  183  A    between atoms: _451  and  _452
REMARK  184  A    between atoms: _454  and  _456
REMARK  185  A    between atoms: _456  and  _457
REMARK  186  A    between atoms: _456  and  _459
REMARK  187  A    between atoms: _459  and  _460
REMARK  188  A    between atoms: _463  and  _465
REMARK  189  A    between atoms: _465  and  _466
REMARK  190  A    between atoms: _469  and  _471
REMARK  191  A    between atoms: _471  and  _472
REMARK  192  A    between atoms: _475  and  _477
REMARK  193  A    between atoms: _477  and  _478
REMARK  194  A    between atoms: _477  and  _480
REMARK  195  A    between atoms: _480  and  _481
REMARK  196  A    between atoms: _484  and  _486
REMARK  197  A    between atoms: _486  and  _487
REMARK  198  A    between atoms: _486  and  _489
REMARK  199  A    between atoms: _489  and  _490
REMARK  200  A    between atoms: _493  and  _495
REMARK  201  A    between atoms: _495  and  _496
REMARK  202  A    between atoms: _495  and  _498
REMARK  203  A    between atoms: _498  and  _499
REMARK  204  A    between atoms: _502  and  _504
REMARK  205  A    between atoms: _504  and  _505
REMARK  206  A    between atoms: _504  and  _507
REMARK  207  A    between atoms: _507  and  _508
REMARK  208  A    between atoms: _508  and  _509
REMARK  209  A    between atoms: _509  and  _510
REMARK  210  A    between atoms: _510  and  _511
REMARK  211  A    between atoms: _515  and  _517
REMARK  212  A    between atoms: _517  and  _518
REMARK  213  A    between atoms: _517  and  _520
REMARK  214  A    between atoms: _520  and  _521
REMARK  215  A    between atoms: _526  and  _528
REMARK  216  A    between atoms: _528  and  _529
REMARK  217  A    between atoms: _528  and  _531
REMARK  218  A    between atoms: _531  and  _532
REMARK  219  A    between atoms: _532  and  _533
REMARK  220  A    between atoms: _533  and  _534
REMARK  221  A    between atoms: _534  and  _535
REMARK  222  A    between atoms: _539  and  _541
REMARK  223  A    between atoms: _541  and  _542
REMARK  224  A    between atoms: _541  and  _544
REMARK  225  A    between atoms: _544  and  _545
REMARK  226  A    between atoms: _555  and  _557
REMARK  227  A    between atoms: _557  and  _558
REMARK  228  A    between atoms: _561  and  _563
REMARK  229  A    between atoms: _563  and  _564
REMARK  230  A    between atoms: _566  and  _568
REMARK  231  A    between atoms: _568  and  _569
REMARK  232  A    between atoms: _568  and  _571
REMARK  233  A    between atoms: _571  and  _572
REMARK  234  A    between atoms: _572  and  _573
REMARK  235  A    between atoms: _576  and  _578
REMARK  236  A    between atoms: _578  and  _579
REMARK  237  A    between atoms: _578  and  _581
REMARK  238  A    between atoms: _581  and  _582
REMARK  239  A    between atoms: _582  and  _583
REMARK  240  A    between atoms: _583  and  _584
REMARK  241  A    between atoms: _593  and  _595
REMARK  242  A    between atoms: _595  and  _596
REMARK  243  A    between atoms: _595  and  _598
REMARK  244  A    between atoms: _598  and  _599
REMARK  245  A    between atoms: _602  and  _604
REMARK  246  A    between atoms: _604  and  _605
REMARK  247  A    between atoms: _604  and  _607
REMARK  248  A    between atoms: _607  and  _608
REMARK  249  A    between atoms: _613  and  _614
REMARK  250  A    between atoms: _616  and  _618
REMARK  251  A    between atoms: _618  and  _619
REMARK  252  A    between atoms: _618  and  _621
REMARK  253  A    between atoms: _621  and  _622
REMARK  254  A    between atoms: _625  and  _627
REMARK  255  A    between atoms: _627  and  _628
REMARK  256  A    between atoms: _627  and  _630
REMARK  257  A    between atoms: _630  and  _631
REMARK  258  A    between atoms: _634  and  _636
REMARK  259  A    between atoms: _636  and  _637
REMARK  260  A    between atoms: _636  and  _639
REMARK  261  A    between atoms: _639  and  _640
REMARK  262  A    between atoms: _641  and  _643
REMARK  263  A    between atoms: _643  and  _644
REMARK  264  A    between atoms: _643  and  _646
REMARK  265  A    between atoms: _649  and  _651
REMARK  266  A    between atoms: _651  and  _652
REMARK  267  A    between atoms: _651  and  _654
REMARK  268  A    between atoms: _654  and  _655
REMARK  269  A    between atoms: _655  and  _656
REMARK  270  A    between atoms: _659  and  _661
REMARK  271  A    between atoms: _661  and  _662
REMARK  272  A    between atoms: _661  and  _664
REMARK  273  A    between atoms: _664  and  _665
REMARK  274  A    between atoms: _675  and  _677
REMARK  275  A    between atoms: _677  and  _678
REMARK  276  A    between atoms: _677  and  _680
REMARK  277  A    between atoms: _680  and  _681
REMARK  278  A    between atoms: _684  and  _686
REMARK  279  A    between atoms: _686  and  _687
REMARK  280  A    between atoms: _686  and  _689
REMARK  281  A    between atoms: _689  and  _690
REMARK  282  A    between atoms: _695  and  _696
REMARK                            x       y       z     vdW  Elec       q    Type
REMARK                         _______ _______ _______ _____ _____    ______ ____
ROOT
ATOM      1  O   HOH     1      34.614  59.144 -13.500  0.00  0.00    +0.000 OA
ENDROOT
TORSDOF 0
REMARK  Name = ../refined-set-2016/1g7q/1g7q_pocket.pdb
REMARK  282 active torsions:
REMARK  status: ('A' for Active; 'I' for Inactive)
REMARK    1  A    between atoms: _1  and  _3
REMARK    2  A    between atoms: _3  and  _4
REMARK    3  A    between atoms: _3  and  _6
REMARK    4  A    between atoms: _6  and  _7
REMARK    5  A    between atoms: _10  and  _12
REMARK    6  A    between atoms: _12  and  _13
REMARK    7  A    between atoms: _12  and  _15
REMARK    8  A    between atoms: _15  and  _16
REMARK    9  A    between atoms: _16  and  _17
REMARK   10  A    between atoms: _17  and  _18
REMARK   11  A    between atoms: _27  and  _29
REMARK   12  A    between atoms: _29  and  _30
REMARK   13  A    between atoms: _29  and  _32
REMARK   14  A    between atoms: _32  and  _33
REMARK   15  A    between atoms: _38  and  _39
REMARK   16  A    between atoms: _41  and  _43
REMARK   17  A    between atoms: _43  and  _44
REMARK   18  A    between atoms: _43  and  _46
REMARK   19  A    between atoms: _46  and  _47
REMARK   20  A    between atoms: _53  and  _55
REMARK   21  A    between atoms: _55  and  _56
REMARK   22  A    between atoms: _55  and  _58
REMARK   23  A    between atoms: _61  and  _63
REMARK   24  A    between atoms: _63  and  _64
REMARK   25  A    between atoms: _63  and  _66
REMARK   26  A    between atoms: _66  and  _67
REMARK   27  A    between atoms: _72  and  _73
REMARK   28  A    between atoms: _75  and  _77
REMARK   29  A    between atoms: _77  and  _78
REMARK   30  A    between atoms: _77  and  _80
REMARK   31  A    between atoms: _80  and  _81
REMARK   32  A    between atoms: _81  and  _82
REMARK   33  A    between atoms: _85  and  _87
REMARK   34  A    between atoms: _87  and  _88
REMARK   35  A    between atoms: _87  and  _90
REMARK   36  A    between atoms: _93  and  _95
REMARK   37  A    between atoms: _95  and  _96
REMARK   38  A    between atoms: _98  and  _100
REMARK   39  A    between atoms: _100  and  _101
REMARK   40  A    between atoms: _100  and  _103
REMARK   41  A    between atoms: _106  and  _108
REMARK   42  A    between atoms: _108  and  _109
REMARK   43  A    between atoms: _108  and  _111
REMARK   44  A    between atoms: _111  and  _112
REMARK   45  A    between atoms: _118  and  _120
REMARK   46  A    between atoms: _120  and  _121
REMARK   47  A    between atoms: _120  and  _123
REMARK   48  A    between atoms: _126  and  _128
REMARK   49  A    between atoms: _128  and  _129
REMARK   50  A    between atoms: _128  and  _131
REMARK   51  A    between atoms: _131  and  _132
REMARK   52  A    between atoms: _137  and  _138
REMARK   53  A    between atoms: _140  and  _142
REMARK   54  A    between atoms: _142  and  _143
REMARK   55  A    between atoms: _142  and  _145
REMARK   56  A    between atoms: _145  and  _146
REMARK   57  A    between atoms: _146  and  _147
REMARK   58  A    between atoms: _149  and  _151
REMARK   59  A    between atoms: _151  and  _152
REMARK   60  A    between atoms: _151  and  _154
REMARK   61  A    between atoms: _154  and  _155
REMARK   62  A    between atoms: _160  and  _161
REMARK   63  A    between atoms: _163  and  _165
REMARK   64  A    between atoms: _165  and  _166
REMARK   65  A    between atoms: _165  and  _168
REMARK   66  A    between atoms: _168  and  _169
REMARK   67  A    between atoms: _169  and  _170
REMARK   68  A    between atoms: _170  and  _171
REMARK   69  A    between atoms: _180  and  _182
REMARK   70  A    between atoms: _182  and  _183
REMARK   71  A    between atoms: _182  and  _185
REMARK   72  A    between atoms: _185  and  _186
REMARK   73  A    between atoms: _186  and  _187
REMARK   74  A    between atoms: _190  and  _192
REMARK   75  A    between atoms: _192  and  _193
REMARK   76  A    between atoms: _192  and  _195
REMARK   77  A    between atoms: _195  and  _196
REMARK   78  A    between atoms: _196  and  _197
REMARK   79  A    between atoms: _202  and  _204
REMARK   80  A    between atoms: _204  and  _205
REMARK   81  A    between atoms: _204  and  _207
REMARK   82  A    between atoms: _207  and  _208
REMARK   83  A    between atoms: _208  and  _209
REMARK   84  A    between atoms: _209  and  _210
REMARK   85  A    between atoms: _210  and  _211
REMARK   86  A    between atoms: _215  and  _217
REMARK   87  A    between atoms: _217  and  _218
REMARK   88  A    between atoms: _221  and  _223
REMARK   89  A    between atoms: _223  and  _224
REMARK   90  A    between atoms: _226  and  _228
REMARK   91  A    between atoms: _228  and  _229
REMARK   92  A    between atoms: _228  and  _231
REMARK   93  A    between atoms: _231  and  _232
REMARK   94  A    between atoms: _237  and  _239
REMARK   95  A    between atoms: _239  and  _240
REMARK   96  A    between atoms: _239  and  _242
REMARK   97  A    between atoms: _242  and  _243
REMARK   98  A    between atoms: _243  and  _244
REMARK   99  A    between atoms: _247  and  _249
REMARK  100  A    between atoms: _249  and  _250
REMARK  101  A    between atoms: _249  and  _252
REMARK  102  A    between atoms: _252  and  _253
REMARK  103  A    between atoms: _253  and  _254
REMARK  104  A    between atoms: _259  and  _261
REMARK  105  A    between atoms: _261  and  _262
REMARK  106  A    between atoms: _261  and  _264
REMARK  107  A    between atoms: _264  and  _265
REMARK  108  A    between atoms: _267  and  _269
REMARK  109  A    between atoms: _269  and  _270
REMARK  110  A    between atoms: _269  and  _272
REMARK  111  A    between atoms: _272  and  _273
REMARK  112  A    between atoms: _279  and  _281
REMARK  113  A    between atoms: _281  and  _282
REMARK  114  A    between atoms: _281  and  _284
REMARK  115  A    between atoms: _284  and  _285
REMARK  116  A    between atoms: _285  and  _286
REMARK  117  A    between atoms: _286  and  _287
REMARK  118  A    between atoms: _296  and  _298
REMARK  119  A    between atoms: _298  and  _299
REMARK  120  A    between atoms: _298  and  _301
REMARK  121  A    between atoms: _304  and  _306
REMARK  122  A    between atoms: _306  and  _307
REMARK  123  A    between atoms: _306  and  _309
REMARK  124  A    between atoms: _309  and  _310
REMARK  125  A    between atoms: _313  and  _315
REMARK  126  A    between atoms: _315  and  _316
REMARK  127  A    between atoms: _315  and  _318
REMARK  128  A    between atoms: _318  and  _319
REMARK  129  A    between atoms: _322  and  _324
REMARK  130  A    between atoms: _324  and  _325
REMARK  131  A    between atoms: _324  and  _327
REMARK  132  A    between atoms: _327  and  _328
REMARK  133  A    between atoms: _331  and  _333
REMARK  134  A    between atoms: _333  and  _334
REMARK  135  A    between atoms: _333  and  _336
REMARK  136  A    between atoms: _336  and  _337
REMARK  137  A    between atoms: _340  and  _342
REMARK  138  A    between atoms: _342  and  _343
REMARK  139  A    between atoms: _342  and  _345
REMARK  140  A    between atoms: _345  and  _346
REMARK  141  A    between atoms: _351  and  _352
REMARK  142  A    between atoms: _354  and  _356
REMARK  143  A    between atoms: _356  and  _357
REMARK  144  A    between atoms: _356  and  _359
REMARK  145  A    between atoms: _359  and  _360
REMARK  146  A    between atoms: _363  and  _365
REMARK  147  A    between atoms: _365  and  _366
REMARK  148  A    between atoms: _365  and  _368
REMARK  149  A    between atoms: _371  and  _373
REMARK  150  A    between atoms: _373  and  _374
REMARK  151  A    between atoms: _373  and  _376
REMARK  152  A    between atoms: _376  and  _377
REMARK  153  A    between atoms: _380  and  _382
REMARK  154  A    between atoms: _382  and  _383
REMARK  155  A    between atoms: _382  and  _385
REMARK  156  A    between atoms: _385  and  _386
REMARK  157  A    between atoms: _388  and  _390
REMARK  158  A    between atoms: _390  and  _391
REMARK  159  A    between atoms: _393  and  _395
REMARK  160  A    between atoms: _395  and  _396
REMARK  161  A    between atoms: _395  and  _398
REMARK  162  A    between atoms: _398  and  _399
REMARK  163  A    between atoms: _399  and  _640
REMARK  164  A    between atoms: _400  and  _402
REMARK  165  A    between atoms: _402  and  _403
REMARK  166  A    between atoms: _402  and  _405
REMARK  167  A    between atoms: _405  and  _406
REMARK  168  A    between atoms: _411  and  _412
REMARK  169  A    between atoms: _414  and  _416
REMARK  170  A    between atoms: _416  and  _417
REMARK  171  A    between atoms: _416  and  _419
REMARK  172  A    between atoms: _419  and  _420
REMARK  173  A    between atoms: _420  and  _421
REMARK  174  A    between atoms: _426  and  _428
REMARK  175  A    between atoms: _428  and  _429
REMARK  176  A    between atoms: _428  and  _431
REMARK  177  A    between atoms: _431  and  _432
REMARK  178  A    between atoms: _437  and  _438
REMARK  179  A    between atoms: _440  and  _442
REMARK  180  A    between atoms: _442  and  _443
REMARK  181  A    between atoms: _442  and  _445
REMARK  182  A    between atoms: _445  and  _446
REMARK  183  A    between atoms: _451  and  _452
REMARK  184  A    between atoms: _454  and  _456
REMARK  185  A    between atoms: _456  and  _457
REMARK  186  A    between atoms: _456  and  _459
REMARK  187  A    between atoms: _459  and  _460
REMARK  188  A    between atoms: _463  and  _465
REMARK  189  A    between atoms: _465  and  _466
REMARK  190  A    between atoms: _469  and  _471
REMARK  191  A    between atoms: _471  and  _472
REMARK  192  A    between atoms: _475  and  _477
REMARK  193  A    between atoms: _477  and  _478
REMARK  194  A    between atoms: _477  and  _480
REMARK  195  A    between atoms: _480  and  _481
REMARK  196  A    between atoms: _484  and  _486
REMARK  197  A    between atoms: _486  and  _487
REMARK  198  A    between atoms: _486  and  _489
REMARK  199  A    between atoms: _489  and  _490
REMARK  200  A    between atoms: _493  and  _495
REMARK  201  A    between atoms: _495  and  _496
REMARK  202  A    between atoms: _495  and  _498
REMARK  203  A    between atoms: _498  and  _499
REMARK  204  A    between atoms: _502  and  _504
REMARK  205  A    between atoms: _504  and  _505
REMARK  206  A    between atoms: _504  and  _507
REMARK  207  A    between atoms: _507  and  _508
REMARK  208  A    between atoms: _508  and  _509
REMARK  209  A    between atoms: _509  and  _510
REMARK  210  A    between atoms: _510  and  _511
REMARK  211  A    between atoms: _515  and  _517
REMARK  212  A    between atoms: _517  and  _518
REMARK  213  A    between atoms: _517  and  _520
REMARK  214  A    between atoms: _520  and  _521
REMARK  215  A    between atoms: _526  and  _528
REMARK  216  A    between atoms: _528  and  _529
REMARK  217  A    between atoms: _528  and  _531
REMARK  218  A    between atoms: _531  and  _532
REMARK  219  A    between atoms: _532  and  _533
REMARK  220  A    between atoms: _533  and  _534
REMARK  221  A    between atoms: _534  and  _535
REMARK  222  A    between atoms: _539  and  _541
REMARK  223  A    between atoms: _541  and  _542
REMARK  224  A    between atoms: _541  and  _544
REMARK  225  A    between atoms: _544  and  _545
REMARK  226  A    between atoms: _555  and  _557
REMARK  227  A    between atoms: _557  and  _558
REMARK  228  A    between atoms: _561  and  _563
REMARK  229  A    between atoms: _563  and  _564
REMARK  230  A    between atoms: _566  and  _568
REMARK  231  A    between atoms: _568  and  _569
REMARK  232  A    between atoms: _568  and  _571
REMARK  233  A    between atoms: _571  and  _572
REMARK  234  A    between atoms: _572  and  _573
REMARK  235  A    between atoms: _576  and  _578
REMARK  236  A    between atoms: _578  and  _579
REMARK  237  A    between atoms: _578  and  _581
REMARK  238  A    between atoms: _581  and  _582
REMARK  239  A    between atoms: _582  and  _583
REMARK  240  A    between atoms: _583  and  _584
REMARK  241  A    between atoms: _593  and  _595
REMARK  242  A    between atoms: _595  and  _596
REMARK  243  A    between atoms: _595  and  _598
REMARK  244  A    between atoms: _598  and  _599
REMARK  245  A    between atoms: _602  and  _604
REMARK  246  A    between atoms: _604  and  _605
REMARK  247  A    between atoms: _604  and  _607
REMARK  248  A    between atoms: _607  and  _608
REMARK  249  A    between atoms: _613  and  _614
REMARK  250  A    between atoms: _616  and  _618
REMARK  251  A    between atoms: _618  and  _619
REMARK  252  A    between atoms: _618  and  _621
REMARK  253  A    between atoms: _621  and  _622
REMARK  254  A    between atoms: _625  and  _627
REMARK  255  A    between atoms: _627  and  _628
REMARK  256  A    between atoms: _627  and  _630
REMARK  257  A    between atoms: _630  and  _631
REMARK  258  A    between atoms: _634  and  _636
REMARK  259  A    between atoms: _636  and  _637
REMARK  260  A    between atoms: _636  and  _639
REMARK  261  A    between atoms: _639  and  _640
REMARK  262  A    between atoms: _641  and  _643
REMARK  263  A    between atoms: _643  and  _644
REMARK  264  A    between atoms: _643  and  _646
REMARK  265  A    between atoms: _649  and  _651
REMARK  266  A    between atoms: _651  and  _652
REMARK  267  A    between atoms: _651  and  _654
REMARK  268  A    between atoms: _654  and  _655
REMARK  269  A    between atoms: _655  and  _656
REMARK  270  A    between atoms: _659  and  _661
REMARK  271  A    between atoms: _661  and  _662
REMARK  272  A    between atoms: _661  and  _664
REMARK  273  A    between atoms: _664  and  _665
REMARK  274  A    between atoms: _675  and  _677
REMARK  275  A    between atoms: _677  and  _678
REMARK  276  A    between atoms: _677  and  _680
REMARK  277  A    between atoms: _680  and  _681
REMARK  278  A    between atoms: _684  and  _686
REMARK  279  A    between atoms: _686  and  _687
REMARK  280  A    between atoms: _686  and  _689
REMARK  281  A    between atoms: _689  and  _690
REMARK  282  A    between atoms: _695  and  _696
REMARK                            x       y       z     vdW  Elec       q    Type
REMARK                         _______ _______ _______ _____ _____    ______ ____
ROOT
ATOM      1  O   HOH     1      46.898  55.681   6.546  0.00  0.00    +0.000 OA
ENDROOT
TORSDOF 0
REMARK  Name = ../refined-set-2016/1g7q/1g7q_pocket.pdb
REMARK  282 active torsions:
REMARK  status: ('A' for Active; 'I' for Inactive)
REMARK    1  A    between atoms: _1  and  _3
REMARK    2  A    between atoms: _3  and  _4
REMARK    3  A    between atoms: _3  and  _6
REMARK    4  A    between atoms: _6  and  _7
REMARK    5  A    between atoms: _10  and  _12
REMARK    6  A    between atoms: _12  and  _13
REMARK    7  A    between atoms: _12  and  _15
REMARK    8  A    between atoms: _15  and  _16
REMARK    9  A    between atoms: _16  and  _17
REMARK   10  A    between atoms: _17  and  _18
REMARK   11  A    between atoms: _27  and  _29
REMARK   12  A    between atoms: _29  and  _30
REMARK   13  A    between atoms: _29  and  _32
REMARK   14  A    between atoms: _32  and  _33
REMARK   15  A    between atoms: _38  and  _39
REMARK   16  A    between atoms: _41  and  _43
REMARK   17  A    between atoms: _43  and  _44
REMARK   18  A    between atoms: _43  and  _46
REMARK   19  A    between atoms: _46  and  _47
REMARK   20  A    between atoms: _53  and  _55
REMARK   21  A    between atoms: _55  and  _56
REMARK   22  A    between atoms: _55  and  _58
REMARK   23  A    between atoms: _61  and  _63
REMARK   24  A    between atoms: _63  and  _64
REMARK   25  A    between atoms: _63  and  _66
REMARK   26  A    between atoms: _66  and  _67
REMARK   27  A    between atoms: _72  and  _73
REMARK   28  A    between atoms: _75  and  _77
REMARK   29  A    between atoms: _77  and  _78
REMARK   30  A    between atoms: _77  and  _80
REMARK   31  A    between atoms: _80  and  _81
REMARK   32  A    between atoms: _81  and  _82
REMARK   33  A    between atoms: _85  and  _87
REMARK   34  A    between atoms: _87  and  _88
REMARK   35  A    between atoms: _87  and  _90
REMARK   36  A    between atoms: _93  and  _95
REMARK   37  A    between atoms: _95  and  _96
REMARK   38  A    between atoms: _98  and  _100
REMARK   39  A    between atoms: _100  and  _101
REMARK   40  A    between atoms: _100  and  _103
REMARK   41  A    between atoms: _106  and  _108
REMARK   42  A    between atoms: _108  and  _109
REMARK   43  A    between atoms: _108  and  _111
REMARK   44  A    between atoms: _111  and  _112
REMARK   45  A    between atoms: _118  and  _120
REMARK   46  A    between atoms: _120  and  _121
REMARK   47  A    between atoms: _120  and  _123
REMARK   48  A    between atoms: _126  and  _128
REMARK   49  A    between atoms: _128  and  _129
REMARK   50  A    between atoms: _128  and  _131
REMARK   51  A    between atoms: _131  and  _132
REMARK   52  A    between atoms: _137  and  _138
REMARK   53  A    between atoms: _140  and  _142
REMARK   54  A    between atoms: _142  and  _143
REMARK   55  A    between atoms: _142  and  _145
REMARK   56  A    between atoms: _145  and  _146
REMARK   57  A    between atoms: _146  and  _147
REMARK   58  A    between atoms: _149  and  _151
REMARK   59  A    between atoms: _151  and  _152
REMARK   60  A    between atoms: _151  and  _154
REMARK   61  A    between atoms: _154  and  _155
REMARK   62  A    between atoms: _160  and  _161
REMARK   63  A    between atoms: _163  and  _165
REMARK   64  A    between atoms: _165  and  _166
REMARK   65  A    between atoms: _165  and  _168
REMARK   66  A    between atoms: _168  and  _169
REMARK   67  A    between atoms: _169  and  _170
REMARK   68  A    between atoms: _170  and  _171
REMARK   69  A    between atoms: _180  and  _182
REMARK   70  A    between atoms: _182  and  _183
REMARK   71  A    between atoms: _182  and  _185
REMARK   72  A    between atoms: _185  and  _186
REMARK   73  A    between atoms: _186  and  _187
REMARK   74  A    between atoms: _190  and  _192
REMARK   75  A    between atoms: _192  and  _193
REMARK   76  A    between atoms: _192  and  _195
REMARK   77  A    between atoms: _195  and  _196
REMARK   78  A    between atoms: _196  and  _197
REMARK   79  A    between atoms: _202  and  _204
REMARK   80  A    between atoms: _204  and  _205
REMARK   81  A    between atoms: _204  and  _207
REMARK   82  A    between atoms: _207  and  _208
REMARK   83  A    between atoms: _208  and  _209
REMARK   84  A    between atoms: _209  and  _210
REMARK   85  A    between atoms: _210  and  _211
REMARK   86  A    between atoms: _215  and  _217
REMARK   87  A    between atoms: _217  and  _218
REMARK   88  A    between atoms: _221  and  _223
REMARK   89  A    between atoms: _223  and  _224
REMARK   90  A    between atoms: _226  and  _228
REMARK   91  A    between atoms: _228  and  _229
REMARK   92  A    between atoms: _228  and  _231
REMARK   93  A    between atoms: _231  and  _232
REMARK   94  A    between atoms: _237  and  _239
REMARK   95  A    between atoms: _239  and  _240
REMARK   96  A    between atoms: _239  and  _242
REMARK   97  A    between atoms: _242  and  _243
REMARK   98  A    between atoms: _243  and  _244
REMARK   99  A    between atoms: _247  and  _249
REMARK  100  A    between atoms: _249  and  _250
REMARK  101  A    between atoms: _249  and  _252
REMARK  102  A    between atoms: _252  and  _253
REMARK  103  A    between atoms: _253  and  _254
REMARK  104  A    between atoms: _259  and  _261
REMARK  105  A    between atoms: _261  and  _262
REMARK  106  A    between atoms: _261  and  _264
REMARK  107  A    between atoms: _264  and  _265
REMARK  108  A    between atoms: _267  and  _269
REMARK  109  A    between atoms: _269  and  _270
REMARK  110  A    between atoms: _269  and  _272
REMARK  111  A    between atoms: _272  and  _273
REMARK  112  A    between atoms: _279  and  _281
REMARK  113  A    between atoms: _281  and  _282
REMARK  114  A    between atoms: _281  and  _284
REMARK  115  A    between atoms: _284  and  _285
REMARK  116  A    between atoms: _285  and  _286
REMARK  117  A    between atoms: _286  and  _287
REMARK  118  A    between atoms: _296  and  _298
REMARK  119  A    between atoms: _298  and  _299
REMARK  120  A    between atoms: _298  and  _301
REMARK  121  A    between atoms: _304  and  _306
REMARK  122  A    between atoms: _306  and  _307
REMARK  123  A    between atoms: _306  and  _309
REMARK  124  A    between atoms: _309  and  _310
REMARK  125  A    between atoms: _313  and  _315
REMARK  126  A    between atoms: _315  and  _316
REMARK  127  A    between atoms: _315  and  _318
REMARK  128  A    between atoms: _318  and  _319
REMARK  129  A    between atoms: _322  and  _324
REMARK  130  A    between atoms: _324  and  _325
REMARK  131  A    between atoms: _324  and  _327
REMARK  132  A    between atoms: _327  and  _328
REMARK  133  A    between atoms: _331  and  _333
REMARK  134  A    between atoms: _333  and  _334
REMARK  135  A    between atoms: _333  and  _336
REMARK  136  A    between atoms: _336  and  _337
REMARK  137  A    between atoms: _340  and  _342
REMARK  138  A    between atoms: _342  and  _343
REMARK  139  A    between atoms: _342  and  _345
REMARK  140  A    between atoms: _345  and  _346
REMARK  141  A    between atoms: _351  and  _352
REMARK  142  A    between atoms: _354  and  _356
REMARK  143  A    between atoms: _356  and  _357
REMARK  144  A    between atoms: _356  and  _359
REMARK  145  A    between atoms: _359  and  _360
REMARK  146  A    between atoms: _363  and  _365
REMARK  147  A    between atoms: _365  and  _366
REMARK  148  A    between atoms: _365  and  _368
REMARK  149  A    between atoms: _371  and  _373
REMARK  150  A    between atoms: _373  and  _374
REMARK  151  A    between atoms: _373  and  _376
REMARK  152  A    between atoms: _376  and  _377
REMARK  153  A    between atoms: _380  and  _382
REMARK  154  A    between atoms: _382  and  _383
REMARK  155  A    between atoms: _382  and  _385
REMARK  156  A    between atoms: _385  and  _386
REMARK  157  A    between atoms: _388  and  _390
REMARK  158  A    between atoms: _390  and  _391
REMARK  159  A    between atoms: _393  and  _395
REMARK  160  A    between atoms: _395  and  _396
REMARK  161  A    between atoms: _395  and  _398
REMARK  162  A    between atoms: _398  and  _399
REMARK  163  A    between atoms: _399  and  _640
REMARK  164  A    between atoms: _400  and  _402
REMARK  165  A    between atoms: _402  and  _403
REMARK  166  A    between atoms: _402  and  _405
REMARK  167  A    between atoms: _405  and  _406
REMARK  168  A    between atoms: _411  and  _412
REMARK  169  A    between atoms: _414  and  _416
REMARK  170  A    between atoms: _416  and  _417
REMARK  171  A    between atoms: _416  and  _419
REMARK  172  A    between atoms: _419  and  _420
REMARK  173  A    between atoms: _420  and  _421
REMARK  174  A    between atoms: _426  and  _428
REMARK  175  A    between atoms: _428  and  _429
REMARK  176  A    between atoms: _428  and  _431
REMARK  177  A    between atoms: _431  and  _432
REMARK  178  A    between atoms: _437  and  _438
REMARK  179  A    between atoms: _440  and  _442
REMARK  180  A    between atoms: _442  and  _443
REMARK  181  A    between atoms: _442  and  _445
REMARK  182  A    between atoms: _445  and  _446
REMARK  183  A    between atoms: _451  and  _452
REMARK  184  A    between atoms: _454  and  _456
REMARK  185  A    between atoms: _456  and  _457
REMARK  186  A    between atoms: _456  and  _459
REMARK  187  A    between atoms: _459  and  _460
REMARK  188  A    between atoms: _463  and  _465
REMARK  189  A    between atoms: _465  and  _466
REMARK  190  A    between atoms: _469  and  _471
REMARK  191  A    between atoms: _471  and  _472
REMARK  192  A    between atoms: _475  and  _477
REMARK  193  A    between atoms: _477  and  _478
REMARK  194  A    between atoms: _477  and  _480
REMARK  195  A    between atoms: _480  and  _481
REMARK  196  A    between atoms: _484  and  _486
REMARK  197  A    between atoms: _486  and  _487
REMARK  198  A    between atoms: _486  and  _489
REMARK  199  A    between atoms: _489  and  _490
REMARK  200  A    between atoms: _493  and  _495
REMARK  201  A    between atoms: _495  and  _496
REMARK  202  A    between atoms: _495  and  _498
REMARK  203  A    between atoms: _498  and  _499
REMARK  204  A    between atoms: _502  and  _504
REMARK  205  A    between atoms: _504  and  _505
REMARK  206  A    between atoms: _504  and  _507
REMARK  207  A    between atoms: _507  and  _508
REMARK  208  A    between atoms: _508  and  _509
REMARK  209  A    between atoms: _509  and  _510
REMARK  210  A    between atoms: _510  and  _511
REMARK  211  A    between atoms: _515  and  _517
REMARK  212  A    between atoms: _517  and  _518
REMARK  213  A    between atoms: _517  and  _520
REMARK  214  A    between atoms: _520  and  _521
REMARK  215  A    between atoms: _526  and  _528
REMARK  216  A    between atoms: _528  and  _529
REMARK  217  A    between atoms: _528  and  _531
REMARK  218  A    between atoms: _531  and  _532
REMARK  219  A    between atoms: _532  and  _533
REMARK  220  A    between atoms: _533  and  _534
REMARK  221  A    between atoms: _534  and  _535
REMARK  222  A    between atoms: _539  and  _541
REMARK  223  A    between atoms: _541  and  _542
REMARK  224  A    between atoms: _541  and  _544
REMARK  225  A    between atoms: _544  and  _545
REMARK  226  A    between atoms: _555  and  _557
REMARK  227  A    between atoms: _557  and  _558
REMARK  228  A    between atoms: _561  and  _563
REMARK  229  A    between atoms: _563  and  _564
REMARK  230  A    between atoms: _566  and  _568
REMARK  231  A    between atoms: _568  and  _569
REMARK  232  A    between atoms: _568  and  _571
REMARK  233  A    between atoms: _571  and  _572
REMARK  234  A    between atoms: _572  and  _573
REMARK  235  A    between atoms: _576  and  _578
REMARK  236  A    between atoms: _578  and  _579
REMARK  237  A    between atoms: _578  and  _581
REMARK  238  A    between atoms: _581  and  _582
REMARK  239  A    between atoms: _582  and  _583
REMARK  240  A    between atoms: _583  and  _584
REMARK  241  A    between atoms: _593  and  _595
REMARK  242  A    between atoms: _595  and  _596
REMARK  243  A    between atoms: _595  and  _598
REMARK  244  A    between atoms: _598  and  _599
REMARK  245  A    between atoms: _602  and  _604
REMARK  246  A    between atoms: _604  and  _605
REMARK  247  A    between atoms: _604  and  _607
REMARK  248  A    between atoms: _607  and  _608
REMARK  249  A    between atoms: _613  and  _614
REMARK  250  A    between atoms: _616  and  _618
REMARK  251  A    between atoms: _618  and  _619
REMARK  252  A    between atoms: _618  and  _621
REMARK  253  A    between atoms: _621  and  _622
REMARK  254  A    between atoms: _625  and  _627
REMARK  255  A    between atoms: _627  and  _628
REMARK  256  A    between atoms: _627  and  _630
REMARK  257  A    between atoms: _630  and  _631
REMARK  258  A    between atoms: _634  and  _636
REMARK  259  A    between atoms: _636  and  _637
REMARK  260  A    between atoms: _636  and  _639
REMARK  261  A    between atoms: _639  and  _640
REMARK  262  A    between atoms: _641  and  _643
REMARK  263  A    between atoms: _643  and  _644
REMARK  264  A    between atoms: _643  and  _646
REMARK  265  A    between atoms: _649  and  _651
REMARK  266  A    between atoms: _651  and  _652
REMARK  267  A    between atoms: _651  and  _654
REMARK  268  A    between atoms: _654  and  _655
REMARK  269  A    between atoms: _655  and  _656
REMARK  270  A    between atoms: _659  and  _661
REMARK  271  A    between atoms: _661  and  _662
REMARK  272  A    between atoms: _661  and  _664
REMARK  273  A    between atoms: _664  and  _665
REMARK  274  A    between atoms: _675  and  _677
REMARK  275  A    between atoms: _677  and  _678
REMARK  276  A    between atoms: _677  and  _680
REMARK  277  A    between atoms: _680  and  _681
REMARK  278  A    between atoms: _684  and  _686
REMARK  279  A    between atoms: _686  and  _687
REMARK  280  A    between atoms: _686  and  _689
REMARK  281  A    between atoms: _689  and  _690
REMARK  282  A    between atoms: _695  and  _696
REMARK                            x       y       z     vdW  Elec       q    Type
REMARK                         _______ _______ _______ _____ _____    ______ ____
ROOT
ATOM      1  O   HOH     1      39.607  62.724  -0.968  0.00  0.00    +0.000 OA
ENDROOT
TORSDOF 0
REMARK  Name = ../refined-set-2016/1g7q/1g7q_pocket.pdb
REMARK  282 active torsions:
REMARK  status: ('A' for Active; 'I' for Inactive)
REMARK    1  A    between atoms: _1  and  _3
REMARK    2  A    between atoms: _3  and  _4
REMARK    3  A    between atoms: _3  and  _6
REMARK    4  A    between atoms: _6  and  _7
REMARK    5  A    between atoms: _10  and  _12
REMARK    6  A    between atoms: _12  and  _13
REMARK    7  A    between atoms: _12  and  _15
REMARK    8  A    between atoms: _15  and  _16
REMARK    9  A    between atoms: _16  and  _17
REMARK   10  A    between atoms: _17  and  _18
REMARK   11  A    between atoms: _27  and  _29
REMARK   12  A    between atoms: _29  and  _30
REMARK   13  A    between atoms: _29  and  _32
REMARK   14  A    between atoms: _32  and  _33
REMARK   15  A    between atoms: _38  and  _39
REMARK   16  A    between atoms: _41  and  _43
REMARK   17  A    between atoms: _43  and  _44
REMARK   18  A    between atoms: _43  and  _46
REMARK   19  A    between atoms: _46  and  _47
REMARK   20  A    between atoms: _53  and  _55
REMARK   21  A    between atoms: _55  and  _56
REMARK   22  A    between atoms: _55  and  _58
REMARK   23  A    between atoms: _61  and  _63
REMARK   24  A    between atoms: _63  and  _64
REMARK   25  A    between atoms: _63  and  _66
REMARK   26  A    between atoms: _66  and  _67
REMARK   27  A    between atoms: _72  and  _73
REMARK   28  A    between atoms: _75  and  _77
REMARK   29  A    between atoms: _77  and  _78
REMARK   30  A    between atoms: _77  and  _80
REMARK   31  A    between atoms: _80  and  _81
REMARK   32  A    between atoms: _81  and  _82
REMARK   33  A    between atoms: _85  and  _87
REMARK   34  A    between atoms: _87  and  _88
REMARK   35  A    between atoms: _87  and  _90
REMARK   36  A    between atoms: _93  and  _95
REMARK   37  A    between atoms: _95  and  _96
REMARK   38  A    between atoms: _98  and  _100
REMARK   39  A    between atoms: _100  and  _101
REMARK   40  A    between atoms: _100  and  _103
REMARK   41  A    between atoms: _106  and  _108
REMARK   42  A    between atoms: _108  and  _109
REMARK   43  A    between atoms: _108  and  _111
REMARK   44  A    between atoms: _111  and  _112
REMARK   45  A    between atoms: _118  and  _120
REMARK   46  A    between atoms: _120  and  _121
REMARK   47  A    between atoms: _120  and  _123
REMARK   48  A    between atoms: _126  and  _128
REMARK   49  A    between atoms: _128  and  _129
REMARK   50  A    between atoms: _128  and  _131
REMARK   51  A    between atoms: _131  and  _132
REMARK   52  A    between atoms: _137  and  _138
REMARK   53  A    between atoms: _140  and  _142
REMARK   54  A    between atoms: _142  and  _143
REMARK   55  A    between atoms: _142  and  _145
REMARK   56  A    between atoms: _145  and  _146
REMARK   57  A    between atoms: _146  and  _147
REMARK   58  A    between atoms: _149  and  _151
REMARK   59  A    between atoms: _151  and  _152
REMARK   60  A    between atoms: _151  and  _154
REMARK   61  A    between atoms: _154  and  _155
REMARK   62  A    between atoms: _160  and  _161
REMARK   63  A    between atoms: _163  and  _165
REMARK   64  A    between atoms: _165  and  _166
REMARK   65  A    between atoms: _165  and  _168
REMARK   66  A    between atoms: _168  and  _169
REMARK   67  A    between atoms: _169  and  _170
REMARK   68  A    between atoms: _170  and  _171
REMARK   69  A    between atoms: _180  and  _182
REMARK   70  A    between atoms: _182  and  _183
REMARK   71  A    between atoms: _182  and  _185
REMARK   72  A    between atoms: _185  and  _186
REMARK   73  A    between atoms: _186  and  _187
REMARK   74  A    between atoms: _190  and  _192
REMARK   75  A    between atoms: _192  and  _193
REMARK   76  A    between atoms: _192  and  _195
REMARK   77  A    between atoms: _195  and  _196
REMARK   78  A    between atoms: _196  and  _197
REMARK   79  A    between atoms: _202  and  _204
REMARK   80  A    between atoms: _204  and  _205
REMARK   81  A    between atoms: _204  and  _207
REMARK   82  A    between atoms: _207  and  _208
REMARK   83  A    between atoms: _208  and  _209
REMARK   84  A    between atoms: _209  and  _210
REMARK   85  A    between atoms: _210  and  _211
REMARK   86  A    between atoms: _215  and  _217
REMARK   87  A    between atoms: _217  and  _218
REMARK   88  A    between atoms: _221  and  _223
REMARK   89  A    between atoms: _223  and  _224
REMARK   90  A    between atoms: _226  and  _228
REMARK   91  A    between atoms: _228  and  _229
REMARK   92  A    between atoms: _228  and  _231
REMARK   93  A    between atoms: _231  and  _232
REMARK   94  A    between atoms: _237  and  _239
REMARK   95  A    between atoms: _239  and  _240
REMARK   96  A    between atoms: _239  and  _242
REMARK   97  A    between atoms: _242  and  _243
REMARK   98  A    between atoms: _243  and  _244
REMARK   99  A    between atoms: _247  and  _249
REMARK  100  A    between atoms: _249  and  _250
REMARK  101  A    between atoms: _249  and  _252
REMARK  102  A    between atoms: _252  and  _253
REMARK  103  A    between atoms: _253  and  _254
REMARK  104  A    between atoms: _259  and  _261
REMARK  105  A    between atoms: _261  and  _262
REMARK  106  A    between atoms: _261  and  _264
REMARK  107  A    between atoms: _264  and  _265
REMARK  108  A    between atoms: _267  and  _269
REMARK  109  A    between atoms: _269  and  _270
REMARK  110  A    between atoms: _269  and  _272
REMARK  111  A    between atoms: _272  and  _273
REMARK  112  A    between atoms: _279  and  _281
REMARK  113  A    between atoms: _281  and  _282
REMARK  114  A    between atoms: _281  and  _284
REMARK  115  A    between atoms: _284  and  _285
REMARK  116  A    between atoms: _285  and  _286
REMARK  117  A    between atoms: _286  and  _287
REMARK  118  A    between atoms: _296  and  _298
REMARK  119  A    between atoms: _298  and  _299
REMARK  120  A    between atoms: _298  and  _301
REMARK  121  A    between atoms: _304  and  _306
REMARK  122  A    between atoms: _306  and  _307
REMARK  123  A    between atoms: _306  and  _309
REMARK  124  A    between atoms: _309  and  _310
REMARK  125  A    between atoms: _313  and  _315
REMARK  126  A    between atoms: _315  and  _316
REMARK  127  A    between atoms: _315  and  _318
REMARK  128  A    between atoms: _318  and  _319
REMARK  129  A    between atoms: _322  and  _324
REMARK  130  A    between atoms: _324  and  _325
REMARK  131  A    between atoms: _324  and  _327
REMARK  132  A    between atoms: _327  and  _328
REMARK  133  A    between atoms: _331  and  _333
REMARK  134  A    between atoms: _333  and  _334
REMARK  135  A    between atoms: _333  and  _336
REMARK  136  A    between atoms: _336  and  _337
REMARK  137  A    between atoms: _340  and  _342
REMARK  138  A    between atoms: _342  and  _343
REMARK  139  A    between atoms: _342  and  _345
REMARK  140  A    between atoms: _345  and  _346
REMARK  141  A    between atoms: _351  and  _352
REMARK  142  A    between atoms: _354  and  _356
REMARK  143  A    between atoms: _356  and  _357
REMARK  144  A    between atoms: _356  and  _359
REMARK  145  A    between atoms: _359  and  _360
REMARK  146  A    between atoms: _363  and  _365
REMARK  147  A    between atoms: _365  and  _366
REMARK  148  A    between atoms: _365  and  _368
REMARK  149  A    between atoms: _371  and  _373
REMARK  150  A    between atoms: _373  and  _374
REMARK  151  A    between atoms: _373  and  _376
REMARK  152  A    between atoms: _376  and  _377
REMARK  153  A    between atoms: _380  and  _382
REMARK  154  A    between atoms: _382  and  _383
REMARK  155  A    between atoms: _382  and  _385
REMARK  156  A    between atoms: _385  and  _386
REMARK  157  A    between atoms: _388  and  _390
REMARK  158  A    between atoms: _390  and  _391
REMARK  159  A    between atoms: _393  and  _395
REMARK  160  A    between atoms: _395  and  _396
REMARK  161  A    between atoms: _395  and  _398
REMARK  162  A    between atoms: _398  and  _399
REMARK  163  A    between atoms: _399  and  _640
REMARK  164  A    between atoms: _400  and  _402
REMARK  165  A    between atoms: _402  and  _403
REMARK  166  A    between atoms: _402  and  _405
REMARK  167  A    between atoms: _405  and  _406
REMARK  168  A    between atoms: _411  and  _412
REMARK  169  A    between atoms: _414  and  _416
REMARK  170  A    between atoms: _416  and  _417
REMARK  171  A    between atoms: _416  and  _419
REMARK  172  A    between atoms: _419  and  _420
REMARK  173  A    between atoms: _420  and  _421
REMARK  174  A    between atoms: _426  and  _428
REMARK  175  A    between atoms: _428  and  _429
REMARK  176  A    between atoms: _428  and  _431
REMARK  177  A    between atoms: _431  and  _432
REMARK  178  A    between atoms: _437  and  _438
REMARK  179  A    between atoms: _440  and  _442
REMARK  180  A    between atoms: _442  and  _443
REMARK  181  A    between atoms: _442  and  _445
REMARK  182  A    between atoms: _445  and  _446
REMARK  183  A    between atoms: _451  and  _452
REMARK  184  A    between atoms: _454  and  _456
REMARK  185  A    between atoms: _456  and  _457
REMARK  186  A    between atoms: _456  and  _459
REMARK  187  A    between atoms: _459  and  _460
REMARK  188  A    between atoms: _463  and  _465
REMARK  189  A    between atoms: _465  and  _466
REMARK  190  A    between atoms: _469  and  _471
REMARK  191  A    between atoms: _471  and  _472
REMARK  192  A    between atoms: _475  and  _477
REMARK  193  A    between atoms: _477  and  _478
REMARK  194  A    between atoms: _477  and  _480
REMARK  195  A    between atoms: _480  and  _481
REMARK  196  A    between atoms: _484  and  _486
REMARK  197  A    between atoms: _486  and  _487
REMARK  198  A    between atoms: _486  and  _489
REMARK  199  A    between atoms: _489  and  _490
REMARK  200  A    between atoms: _493  and  _495
REMARK  201  A    between atoms: _495  and  _496
REMARK  202  A    between atoms: _495  and  _498
REMARK  203  A    between atoms: _498  and  _499
REMARK  204  A    between atoms: _502  and  _504
REMARK  205  A    between atoms: _504  and  _505
REMARK  206  A    between atoms: _504  and  _507
REMARK  207  A    between atoms: _507  and  _508
REMARK  208  A    between atoms: _508  and  _509
REMARK  209  A    between atoms: _509  and  _510
REMARK  210  A    between atoms: _510  and  _511
REMARK  211  A    between atoms: _515  and  _517
REMARK  212  A    between atoms: _517  and  _518
REMARK  213  A    between atoms: _517  and  _520
REMARK  214  A    between atoms: _520  and  _521
REMARK  215  A    between atoms: _526  and  _528
REMARK  216  A    between atoms: _528  and  _529
REMARK  217  A    between atoms: _528  and  _531
REMARK  218  A    between atoms: _531  and  _532
REMARK  219  A    between atoms: _532  and  _533
REMARK  220  A    between atoms: _533  and  _534
REMARK  221  A    between atoms: _534  and  _535
REMARK  222  A    between atoms: _539  and  _541
REMARK  223  A    between atoms: _541  and  _542
REMARK  224  A    between atoms: _541  and  _544
REMARK  225  A    between atoms: _544  and  _545
REMARK  226  A    between atoms: _555  and  _557
REMARK  227  A    between atoms: _557  and  _558
REMARK  228  A    between atoms: _561  and  _563
REMARK  229  A    between atoms: _563  and  _564
REMARK  230  A    between atoms: _566  and  _568
REMARK  231  A    between atoms: _568  and  _569
REMARK  232  A    between atoms: _568  and  _571
REMARK  233  A    between atoms: _571  and  _572
REMARK  234  A    between atoms: _572  and  _573
REMARK  235  A    between atoms: _576  and  _578
REMARK  236  A    between atoms: _578  and  _579
REMARK  237  A    between atoms: _578  and  _581
REMARK  238  A    between atoms: _581  and  _582
REMARK  239  A    between atoms: _582  and  _583
REMARK  240  A    between atoms: _583  and  _584
REMARK  241  A    between atoms: _593  and  _595
REMARK  242  A    between atoms: _595  and  _596
REMARK  243  A    between atoms: _595  and  _598
REMARK  244  A    between atoms: _598  and  _599
REMARK  245  A    between atoms: _602  and  _604
REMARK  246  A    between atoms: _604  and  _605
REMARK  247  A    between atoms: _604  and  _607
REMARK  248  A    between atoms: _607  and  _608
REMARK  249  A    between atoms: _613  and  _614
REMARK  250  A    between atoms: _616  and  _618
REMARK  251  A    between atoms: _618  and  _619
REMARK  252  A    between atoms: _618  and  _621
REMARK  253  A    between atoms: _621  and  _622
REMARK  254  A    between atoms: _625  and  _627
REMARK  255  A    between atoms: _627  and  _628
REMARK  256  A    between atoms: _627  and  _630
REMARK  257  A    between atoms: _630  and  _631
REMARK  258  A    between atoms: _634  and  _636
REMARK  259  A    between atoms: _636  and  _637
REMARK  260  A    between atoms: _636  and  _639
REMARK  261  A    between atoms: _639  and  _640
REMARK  262  A    between atoms: _641  and  _643
REMARK  263  A    between atoms: _643  and  _644
REMARK  264  A    between atoms: _643  and  _646
REMARK  265  A    between atoms: _649  and  _651
REMARK  266  A    between atoms: _651  and  _652
REMARK  267  A    between atoms: _651  and  _654
REMARK  268  A    between atoms: _654  and  _655
REMARK  269  A    between atoms: _655  and  _656
REMARK  270  A    between atoms: _659  and  _661
REMARK  271  A    between atoms: _661  and  _662
REMARK  272  A    between atoms: _661  and  _664
REMARK  273  A    between atoms: _664  and  _665
REMARK  274  A    between atoms: _675  and  _677
REMARK  275  A    between atoms: _677  and  _678
REMARK  276  A    between atoms: _677  and  _680
REMARK  277  A    between atoms: _680  and  _681
REMARK  278  A    between atoms: _684  and  _686
REMARK  279  A    between atoms: _686  and  _687
REMARK  280  A    between atoms: _686  and  _689
REMARK  281  A    between atoms: _689  and  _690
REMARK  282  A    between atoms: _695  and  _696
REMARK                            x       y       z     vdW  Elec       q    Type
REMARK                         _______ _______ _______ _____ _____    ______ ____
ROOT
ATOM      1  O   HOH     1      47.077  62.232  -3.533  0.00  0.00    +0.000 OA
ENDROOT
TORSDOF 0
REMARK  Name = ../refined-set-2016/1g7q/1g7q_pocket.pdb
REMARK  282 active torsions:
REMARK  status: ('A' for Active; 'I' for Inactive)
REMARK    1  A    between atoms: _1  and  _3
REMARK    2  A    between atoms: _3  and  _4
REMARK    3  A    between atoms: _3  and  _6
REMARK    4  A    between atoms: _6  and  _7
REMARK    5  A    between atoms: _10  and  _12
REMARK    6  A    between atoms: _12  and  _13
REMARK    7  A    between atoms: _12  and  _15
REMARK    8  A    between atoms: _15  and  _16
REMARK    9  A    between atoms: _16  and  _17
REMARK   10  A    between atoms: _17  and  _18
REMARK   11  A    between atoms: _27  and  _29
REMARK   12  A    between atoms: _29  and  _30
REMARK   13  A    between atoms: _29  and  _32
REMARK   14  A    between atoms: _32  and  _33
REMARK   15  A    between atoms: _38  and  _39
REMARK   16  A    between atoms: _41  and  _43
REMARK   17  A    between atoms: _43  and  _44
REMARK   18  A    between atoms: _43  and  _46
REMARK   19  A    between atoms: _46  and  _47
REMARK   20  A    between atoms: _53  and  _55
REMARK   21  A    between atoms: _55  and  _56
REMARK   22  A    between atoms: _55  and  _58
REMARK   23  A    between atoms: _61  and  _63
REMARK   24  A    between atoms: _63  and  _64
REMARK   25  A    between atoms: _63  and  _66
REMARK   26  A    between atoms: _66  and  _67
REMARK   27  A    between atoms: _72  and  _73
REMARK   28  A    between atoms: _75  and  _77
REMARK   29  A    between atoms: _77  and  _78
REMARK   30  A    between atoms: _77  and  _80
REMARK   31  A    between atoms: _80  and  _81
REMARK   32  A    between atoms: _81  and  _82
REMARK   33  A    between atoms: _85  and  _87
REMARK   34  A    between atoms: _87  and  _88
REMARK   35  A    between atoms: _87  and  _90
REMARK   36  A    between atoms: _93  and  _95
REMARK   37  A    between atoms: _95  and  _96
REMARK   38  A    between atoms: _98  and  _100
REMARK   39  A    between atoms: _100  and  _101
REMARK   40  A    between atoms: _100  and  _103
REMARK   41  A    between atoms: _106  and  _108
REMARK   42  A    between atoms: _108  and  _109
REMARK   43  A    between atoms: _108  and  _111
REMARK   44  A    between atoms: _111  and  _112
REMARK   45  A    between atoms: _118  and  _120
REMARK   46  A    between atoms: _120  and  _121
REMARK   47  A    between atoms: _120  and  _123
REMARK   48  A    between atoms: _126  and  _128
REMARK   49  A    between atoms: _128  and  _129
REMARK   50  A    between atoms: _128  and  _131
REMARK   51  A    between atoms: _131  and  _132
REMARK   52  A    between atoms: _137  and  _138
REMARK   53  A    between atoms: _140  and  _142
REMARK   54  A    between atoms: _142  and  _143
REMARK   55  A    between atoms: _142  and  _145
REMARK   56  A    between atoms: _145  and  _146
REMARK   57  A    between atoms: _146  and  _147
REMARK   58  A    between atoms: _149  and  _151
REMARK   59  A    between atoms: _151  and  _152
REMARK   60  A    between atoms: _151  and  _154
REMARK   61  A    between atoms: _154  and  _155
REMARK   62  A    between atoms: _160  and  _161
REMARK   63  A    between atoms: _163  and  _165
REMARK   64  A    between atoms: _165  and  _166
REMARK   65  A    between atoms: _165  and  _168
REMARK   66  A    between atoms: _168  and  _169
REMARK   67  A    between atoms: _169  and  _170
REMARK   68  A    between atoms: _170  and  _171
REMARK   69  A    between atoms: _180  and  _182
REMARK   70  A    between atoms: _182  and  _183
REMARK   71  A    between atoms: _182  and  _185
REMARK   72  A    between atoms: _185  and  _186
REMARK   73  A    between atoms: _186  and  _187
REMARK   74  A    between atoms: _190  and  _192
REMARK   75  A    between atoms: _192  and  _193
REMARK   76  A    between atoms: _192  and  _195
REMARK   77  A    between atoms: _195  and  _196
REMARK   78  A    between atoms: _196  and  _197
REMARK   79  A    between atoms: _202  and  _204
REMARK   80  A    between atoms: _204  and  _205
REMARK   81  A    between atoms: _204  and  _207
REMARK   82  A    between atoms: _207  and  _208
REMARK   83  A    between atoms: _208  and  _209
REMARK   84  A    between atoms: _209  and  _210
REMARK   85  A    between atoms: _210  and  _211
REMARK   86  A    between atoms: _215  and  _217
REMARK   87  A    between atoms: _217  and  _218
REMARK   88  A    between atoms: _221  and  _223
REMARK   89  A    between atoms: _223  and  _224
REMARK   90  A    between atoms: _226  and  _228
REMARK   91  A    between atoms: _228  and  _229
REMARK   92  A    between atoms: _228  and  _231
REMARK   93  A    between atoms: _231  and  _232
REMARK   94  A    between atoms: _237  and  _239
REMARK   95  A    between atoms: _239  and  _240
REMARK   96  A    between atoms: _239  and  _242
REMARK   97  A    between atoms: _242  and  _243
REMARK   98  A    between atoms: _243  and  _244
REMARK   99  A    between atoms: _247  and  _249
REMARK  100  A    between atoms: _249  and  _250
REMARK  101  A    between atoms: _249  and  _252
REMARK  102  A    between atoms: _252  and  _253
REMARK  103  A    between atoms: _253  and  _254
REMARK  104  A    between atoms: _259  and  _261
REMARK  105  A    between atoms: _261  and  _262
REMARK  106  A    between atoms: _261  and  _264
REMARK  107  A    between atoms: _264  and  _265
REMARK  108  A    between atoms: _267  and  _269
REMARK  109  A    between atoms: _269  and  _270
REMARK  110  A    between atoms: _269  and  _272
REMARK  111  A    between atoms: _272  and  _273
REMARK  112  A    between atoms: _279  and  _281
REMARK  113  A    between atoms: _281  and  _282
REMARK  114  A    between atoms: _281  and  _284
REMARK  115  A    between atoms: _284  and  _285
REMARK  116  A    between atoms: _285  and  _286
REMARK  117  A    between atoms: _286  and  _287
REMARK  118  A    between atoms: _296  and  _298
REMARK  119  A    between atoms: _298  and  _299
REMARK  120  A    between atoms: _298  and  _301
REMARK  121  A    between atoms: _304  and  _306
REMARK  122  A    between atoms: _306  and  _307
REMARK  123  A    between atoms: _306  and  _309
REMARK  124  A    between atoms: _309  and  _310
REMARK  125  A    between atoms: _313  and  _315
REMARK  126  A    between atoms: _315  and  _316
REMARK  127  A    between atoms: _315  and  _318
REMARK  128  A    between atoms: _318  and  _319
REMARK  129  A    between atoms: _322  and  _324
REMARK  130  A    between atoms: _324  and  _325
REMARK  131  A    between atoms: _324  and  _327
REMARK  132  A    between atoms: _327  and  _328
REMARK  133  A    between atoms: _331  and  _333
REMARK  134  A    between atoms: _333  and  _334
REMARK  135  A    between atoms: _333  and  _336
REMARK  136  A    between atoms: _336  and  _337
REMARK  137  A    between atoms: _340  and  _342
REMARK  138  A    between atoms: _342  and  _343
REMARK  139  A    between atoms: _342  and  _345
REMARK  140  A    between atoms: _345  and  _346
REMARK  141  A    between atoms: _351  and  _352
REMARK  142  A    between atoms: _354  and  _356
REMARK  143  A    between atoms: _356  and  _357
REMARK  144  A    between atoms: _356  and  _359
REMARK  145  A    between atoms: _359  and  _360
REMARK  146  A    between atoms: _363  and  _365
REMARK  147  A    between atoms: _365  and  _366
REMARK  148  A    between atoms: _365  and  _368
REMARK  149  A    between atoms: _371  and  _373
REMARK  150  A    between atoms: _373  and  _374
REMARK  151  A    between atoms: _373  and  _376
REMARK  152  A    between atoms: _376  and  _377
REMARK  153  A    between atoms: _380  and  _382
REMARK  154  A    between atoms: _382  and  _383
REMARK  155  A    between atoms: _382  and  _385
REMARK  156  A    between atoms: _385  and  _386
REMARK  157  A    between atoms: _388  and  _390
REMARK  158  A    between atoms: _390  and  _391
REMARK  159  A    between atoms: _393  and  _395
REMARK  160  A    between atoms: _395  and  _396
REMARK  161  A    between atoms: _395  and  _398
REMARK  162  A    between atoms: _398  and  _399
REMARK  163  A    between atoms: _399  and  _640
REMARK  164  A    between atoms: _400  and  _402
REMARK  165  A    between atoms: _402  and  _403
REMARK  166  A    between atoms: _402  and  _405
REMARK  167  A    between atoms: _405  and  _406
REMARK  168  A    between atoms: _411  and  _412
REMARK  169  A    between atoms: _414  and  _416
REMARK  170  A    between atoms: _416  and  _417
REMARK  171  A    between atoms: _416  and  _419
REMARK  172  A    between atoms: _419  and  _420
REMARK  173  A    between atoms: _420  and  _421
REMARK  174  A    between atoms: _426  and  _428
REMARK  175  A    between atoms: _428  and  _429
REMARK  176  A    between atoms: _428  and  _431
REMARK  177  A    between atoms: _431  and  _432
REMARK  178  A    between atoms: _437  and  _438
REMARK  179  A    between atoms: _440  and  _442
REMARK  180  A    between atoms: _442  and  _443
REMARK  181  A    between atoms: _442  and  _445
REMARK  182  A    between atoms: _445  and  _446
REMARK  183  A    between atoms: _451  and  _452
REMARK  184  A    between atoms: _454  and  _456
REMARK  185  A    between atoms: _456  and  _457
REMARK  186  A    between atoms: _456  and  _459
REMARK  187  A    between atoms: _459  and  _460
REMARK  188  A    between atoms: _463  and  _465
REMARK  189  A    between atoms: _465  and  _466
REMARK  190  A    between atoms: _469  and  _471
REMARK  191  A    between atoms: _471  and  _472
REMARK  192  A    between atoms: _475  and  _477
REMARK  193  A    between atoms: _477  and  _478
REMARK  194  A    between atoms: _477  and  _480
REMARK  195  A    between atoms: _480  and  _481
REMARK  196  A    between atoms: _484  and  _486
REMARK  197  A    between atoms: _486  and  _487
REMARK  198  A    between atoms: _486  and  _489
REMARK  199  A    between atoms: _489  and  _490
REMARK  200  A    between atoms: _493  and  _495
REMARK  201  A    between atoms: _495  and  _496
REMARK  202  A    between atoms: _495  and  _498
REMARK  203  A    between atoms: _498  and  _499
REMARK  204  A    between atoms: _502  and  _504
REMARK  205  A    between atoms: _504  and  _505
REMARK  206  A    between atoms: _504  and  _507
REMARK  207  A    between atoms: _507  and  _508
REMARK  208  A    between atoms: _508  and  _509
REMARK  209  A    between atoms: _509  and  _510
REMARK  210  A    between atoms: _510  and  _511
REMARK  211  A    between atoms: _515  and  _517
REMARK  212  A    between atoms: _517  and  _518
REMARK  213  A    between atoms: _517  and  _520
REMARK  214  A    between atoms: _520  and  _521
REMARK  215  A    between atoms: _526  and  _528
REMARK  216  A    between atoms: _528  and  _529
REMARK  217  A    between atoms: _528  and  _531
REMARK  218  A    between atoms: _531  and  _532
REMARK  219  A    between atoms: _532  and  _533
REMARK  220  A    between atoms: _533  and  _534
REMARK  221  A    between atoms: _534  and  _535
REMARK  222  A    between atoms: _539  and  _541
REMARK  223  A    between atoms: _541  and  _542
REMARK  224  A    between atoms: _541  and  _544
REMARK  225  A    between atoms: _544  and  _545
REMARK  226  A    between atoms: _555  and  _557
REMARK  227  A    between atoms: _557  and  _558
REMARK  228  A    between atoms: _561  and  _563
REMARK  229  A    between atoms: _563  and  _564
REMARK  230  A    between atoms: _566  and  _568
REMARK  231  A    between atoms: _568  and  _569
REMARK  232  A    between atoms: _568  and  _571
REMARK  233  A    between atoms: _571  and  _572
REMARK  234  A    between atoms: _572  and  _573
REMARK  235  A    between atoms: _576  and  _578
REMARK  236  A    between atoms: _578  and  _579
REMARK  237  A    between atoms: _578  and  _581
REMARK  238  A    between atoms: _581  and  _582
REMARK  239  A    between atoms: _582  and  _583
REMARK  240  A    between atoms: _583  and  _584
REMARK  241  A    between atoms: _593  and  _595
REMARK  242  A    between atoms: _595  and  _596
REMARK  243  A    between atoms: _595  and  _598
REMARK  244  A    between atoms: _598  and  _599
REMARK  245  A    between atoms: _602  and  _604
REMARK  246  A    between atoms: _604  and  _605
REMARK  247  A    between atoms: _604  and  _607
REMARK  248  A    between atoms: _607  and  _608
REMARK  249  A    between atoms: _613  and  _614
REMARK  250  A    between atoms: _616  and  _618
REMARK  251  A    between atoms: _618  and  _619
REMARK  252  A    between atoms: _618  and  _621
REMARK  253  A    between atoms: _621  and  _622
REMARK  254  A    between atoms: _625  and  _627
REMARK  255  A    between atoms: _627  and  _628
REMARK  256  A    between atoms: _627  and  _630
REMARK  257  A    between atoms: _630  and  _631
REMARK  258  A    between atoms: _634  and  _636
REMARK  259  A    between atoms: _636  and  _637
REMARK  260  A    between atoms: _636  and  _639
REMARK  261  A    between atoms: _639  and  _640
REMARK  262  A    between atoms: _641  and  _643
REMARK  263  A    between atoms: _643  and  _644
REMARK  264  A    between atoms: _643  and  _646
REMARK  265  A    between atoms: _649  and  _651
REMARK  266  A    between atoms: _651  and  _652
REMARK  267  A    between atoms: _651  and  _654
REMARK  268  A    between atoms: _654  and  _655
REMARK  269  A    between atoms: _655  and  _656
REMARK  270  A    between atoms: _659  and  _661
REMARK  271  A    between atoms: _661  and  _662
REMARK  272  A    between atoms: _661  and  _664
REMARK  273  A    between atoms: _664  and  _665
REMARK  274  A    between atoms: _675  and  _677
REMARK  275  A    between atoms: _677  and  _678
REMARK  276  A    between atoms: _677  and  _680
REMARK  277  A    between atoms: _680  and  _681
REMARK  278  A    between atoms: _684  and  _686
REMARK  279  A    between atoms: _686  and  _687
REMARK  280  A    between atoms: _686  and  _689
REMARK  281  A    between atoms: _689  and  _690
REMARK  282  A    between atoms: _695  and  _696
REMARK                            x       y       z     vdW  Elec       q    Type
REMARK                         _______ _______ _______ _____ _____    ______ ____
ROOT
ATOM      1  O   HOH     1      45.287  56.551   4.669  0.00  0.00    +0.000 OA
ENDROOT
TORSDOF 0
REMARK  Name = ../refined-set-2016/1g7q/1g7q_pocket.pdb
REMARK  282 active torsions:
REMARK  status: ('A' for Active; 'I' for Inactive)
REMARK    1  A    between atoms: _1  and  _3
REMARK    2  A    between atoms: _3  and  _4
REMARK    3  A    between atoms: _3  and  _6
REMARK    4  A    between atoms: _6  and  _7
REMARK    5  A    between atoms: _10  and  _12
REMARK    6  A    between atoms: _12  and  _13
REMARK    7  A    between atoms: _12  and  _15
REMARK    8  A    between atoms: _15  and  _16
REMARK    9  A    between atoms: _16  and  _17
REMARK   10  A    between atoms: _17  and  _18
REMARK   11  A    between atoms: _27  and  _29
REMARK   12  A    between atoms: _29  and  _30
REMARK   13  A    between atoms: _29  and  _32
REMARK   14  A    between atoms: _32  and  _33
REMARK   15  A    between atoms: _38  and  _39
REMARK   16  A    between atoms: _41  and  _43
REMARK   17  A    between atoms: _43  and  _44
REMARK   18  A    between atoms: _43  and  _46
REMARK   19  A    between atoms: _46  and  _47
REMARK   20  A    between atoms: _53  and  _55
REMARK   21  A    between atoms: _55  and  _56
REMARK   22  A    between atoms: _55  and  _58
REMARK   23  A    between atoms: _61  and  _63
REMARK   24  A    between atoms: _63  and  _64
REMARK   25  A    between atoms: _63  and  _66
REMARK   26  A    between atoms: _66  and  _67
REMARK   27  A    between atoms: _72  and  _73
REMARK   28  A    between atoms: _75  and  _77
REMARK   29  A    between atoms: _77  and  _78
REMARK   30  A    between atoms: _77  and  _80
REMARK   31  A    between atoms: _80  and  _81
REMARK   32  A    between atoms: _81  and  _82
REMARK   33  A    between atoms: _85  and  _87
REMARK   34  A    between atoms: _87  and  _88
REMARK   35  A    between atoms: _87  and  _90
REMARK   36  A    between atoms: _93  and  _95
REMARK   37  A    between atoms: _95  and  _96
REMARK   38  A    between atoms: _98  and  _100
REMARK   39  A    between atoms: _100  and  _101
REMARK   40  A    between atoms: _100  and  _103
REMARK   41  A    between atoms: _106  and  _108
REMARK   42  A    between atoms: _108  and  _109
REMARK   43  A    between atoms: _108  and  _111
REMARK   44  A    between atoms: _111  and  _112
REMARK   45  A    between atoms: _118  and  _120
REMARK   46  A    between atoms: _120  and  _121
REMARK   47  A    between atoms: _120  and  _123
REMARK   48  A    between atoms: _126  and  _128
REMARK   49  A    between atoms: _128  and  _129
REMARK   50  A    between atoms: _128  and  _131
REMARK   51  A    between atoms: _131  and  _132
REMARK   52  A    between atoms: _137  and  _138
REMARK   53  A    between atoms: _140  and  _142
REMARK   54  A    between atoms: _142  and  _143
REMARK   55  A    between atoms: _142  and  _145
REMARK   56  A    between atoms: _145  and  _146
REMARK   57  A    between atoms: _146  and  _147
REMARK   58  A    between atoms: _149  and  _151
REMARK   59  A    between atoms: _151  and  _152
REMARK   60  A    between atoms: _151  and  _154
REMARK   61  A    between atoms: _154  and  _155
REMARK   62  A    between atoms: _160  and  _161
REMARK   63  A    between atoms: _163  and  _165
REMARK   64  A    between atoms: _165  and  _166
REMARK   65  A    between atoms: _165  and  _168
REMARK   66  A    between atoms: _168  and  _169
REMARK   67  A    between atoms: _169  and  _170
REMARK   68  A    between atoms: _170  and  _171
REMARK   69  A    between atoms: _180  and  _182
REMARK   70  A    between atoms: _182  and  _183
REMARK   71  A    between atoms: _182  and  _185
REMARK   72  A    between atoms: _185  and  _186
REMARK   73  A    between atoms: _186  and  _187
REMARK   74  A    between atoms: _190  and  _192
REMARK   75  A    between atoms: _192  and  _193
REMARK   76  A    between atoms: _192  and  _195
REMARK   77  A    between atoms: _195  and  _196
REMARK   78  A    between atoms: _196  and  _197
REMARK   79  A    between atoms: _202  and  _204
REMARK   80  A    between atoms: _204  and  _205
REMARK   81  A    between atoms: _204  and  _207
REMARK   82  A    between atoms: _207  and  _208
REMARK   83  A    between atoms: _208  and  _209
REMARK   84  A    between atoms: _209  and  _210
REMARK   85  A    between atoms: _210  and  _211
REMARK   86  A    between atoms: _215  and  _217
REMARK   87  A    between atoms: _217  and  _218
REMARK   88  A    between atoms: _221  and  _223
REMARK   89  A    between atoms: _223  and  _224
REMARK   90  A    between atoms: _226  and  _228
REMARK   91  A    between atoms: _228  and  _229
REMARK   92  A    between atoms: _228  and  _231
REMARK   93  A    between atoms: _231  and  _232
REMARK   94  A    between atoms: _237  and  _239
REMARK   95  A    between atoms: _239  and  _240
REMARK   96  A    between atoms: _239  and  _242
REMARK   97  A    between atoms: _242  and  _243
REMARK   98  A    between atoms: _243  and  _244
REMARK   99  A    between atoms: _247  and  _249
REMARK  100  A    between atoms: _249  and  _250
REMARK  101  A    between atoms: _249  and  _252
REMARK  102  A    between atoms: _252  and  _253
REMARK  103  A    between atoms: _253  and  _254
REMARK  104  A    between atoms: _259  and  _261
REMARK  105  A    between atoms: _261  and  _262
REMARK  106  A    between atoms: _261  and  _264
REMARK  107  A    between atoms: _264  and  _265
REMARK  108  A    between atoms: _267  and  _269
REMARK  109  A    between atoms: _269  and  _270
REMARK  110  A    between atoms: _269  and  _272
REMARK  111  A    between atoms: _272  and  _273
REMARK  112  A    between atoms: _279  and  _281
REMARK  113  A    between atoms: _281  and  _282
REMARK  114  A    between atoms: _281  and  _284
REMARK  115  A    between atoms: _284  and  _285
REMARK  116  A    between atoms: _285  and  _286
REMARK  117  A    between atoms: _286  and  _287
REMARK  118  A    between atoms: _296  and  _298
REMARK  119  A    between atoms: _298  and  _299
REMARK  120  A    between atoms: _298  and  _301
REMARK  121  A    between atoms: _304  and  _306
REMARK  122  A    between atoms: _306  and  _307
REMARK  123  A    between atoms: _306  and  _309
REMARK  124  A    between atoms: _309  and  _310
REMARK  125  A    between atoms: _313  and  _315
REMARK  126  A    between atoms: _315  and  _316
REMARK  127  A    between atoms: _315  and  _318
REMARK  128  A    between atoms: _318  and  _319
REMARK  129  A    between atoms: _322  and  _324
REMARK  130  A    between atoms: _324  and  _325
REMARK  131  A    between atoms: _324  and  _327
REMARK  132  A    between atoms: _327  and  _328
REMARK  133  A    between atoms: _331  and  _333
REMARK  134  A    between atoms: _333  and  _334
REMARK  135  A    between atoms: _333  and  _336
REMARK  136  A    between atoms: _336  and  _337
REMARK  137  A    between atoms: _340  and  _342
REMARK  138  A    between atoms: _342  and  _343
REMARK  139  A    between atoms: _342  and  _345
REMARK  140  A    between atoms: _345  and  _346
REMARK  141  A    between atoms: _351  and  _352
REMARK  142  A    between atoms: _354  and  _356
REMARK  143  A    between atoms: _356  and  _357
REMARK  144  A    between atoms: _356  and  _359
REMARK  145  A    between atoms: _359  and  _360
REMARK  146  A    between atoms: _363  and  _365
REMARK  147  A    between atoms: _365  and  _366
REMARK  148  A    between atoms: _365  and  _368
REMARK  149  A    between atoms: _371  and  _373
REMARK  150  A    between atoms: _373  and  _374
REMARK  151  A    between atoms: _373  and  _376
REMARK  152  A    between atoms: _376  and  _377
REMARK  153  A    between atoms: _380  and  _382
REMARK  154  A    between atoms: _382  and  _383
REMARK  155  A    between atoms: _382  and  _385
REMARK  156  A    between atoms: _385  and  _386
REMARK  157  A    between atoms: _388  and  _390
REMARK  158  A    between atoms: _390  and  _391
REMARK  159  A    between atoms: _393  and  _395
REMARK  160  A    between atoms: _395  and  _396
REMARK  161  A    between atoms: _395  and  _398
REMARK  162  A    between atoms: _398  and  _399
REMARK  163  A    between atoms: _399  and  _640
REMARK  164  A    between atoms: _400  and  _402
REMARK  165  A    between atoms: _402  and  _403
REMARK  166  A    between atoms: _402  and  _405
REMARK  167  A    between atoms: _405  and  _406
REMARK  168  A    between atoms: _411  and  _412
REMARK  169  A    between atoms: _414  and  _416
REMARK  170  A    between atoms: _416  and  _417
REMARK  171  A    between atoms: _416  and  _419
REMARK  172  A    between atoms: _419  and  _420
REMARK  173  A    between atoms: _420  and  _421
REMARK  174  A    between atoms: _426  and  _428
REMARK  175  A    between atoms: _428  and  _429
REMARK  176  A    between atoms: _428  and  _431
REMARK  177  A    between atoms: _431  and  _432
REMARK  178  A    between atoms: _437  and  _438
REMARK  179  A    between atoms: _440  and  _442
REMARK  180  A    between atoms: _442  and  _443
REMARK  181  A    between atoms: _442  and  _445
REMARK  182  A    between atoms: _445  and  _446
REMARK  183  A    between atoms: _451  and  _452
REMARK  184  A    between atoms: _454  and  _456
REMARK  185  A    between atoms: _456  and  _457
REMARK  186  A    between atoms: _456  and  _459
REMARK  187  A    between atoms: _459  and  _460
REMARK  188  A    between atoms: _463  and  _465
REMARK  189  A    between atoms: _465  and  _466
REMARK  190  A    between atoms: _469  and  _471
REMARK  191  A    between atoms: _471  and  _472
REMARK  192  A    between atoms: _475  and  _477
REMARK  193  A    between atoms: _477  and  _478
REMARK  194  A    between atoms: _477  and  _480
REMARK  195  A    between atoms: _480  and  _481
REMARK  196  A    between atoms: _484  and  _486
REMARK  197  A    between atoms: _486  and  _487
REMARK  198  A    between atoms: _486  and  _489
REMARK  199  A    between atoms: _489  and  _490
REMARK  200  A    between atoms: _493  and  _495
REMARK  201  A    between atoms: _495  and  _496
REMARK  202  A    between atoms: _495  and  _498
REMARK  203  A    between atoms: _498  and  _499
REMARK  204  A    between atoms: _502  and  _504
REMARK  205  A    between atoms: _504  and  _505
REMARK  206  A    between atoms: _504  and  _507
REMARK  207  A    between atoms: _507  and  _508
REMARK  208  A    between atoms: _508  and  _509
REMARK  209  A    between atoms: _509  and  _510
REMARK  210  A    between atoms: _510  and  _511
REMARK  211  A    between atoms: _515  and  _517
REMARK  212  A    between atoms: _517  and  _518
REMARK  213  A    between atoms: _517  and  _520
REMARK  214  A    between atoms: _520  and  _521
REMARK  215  A    between atoms: _526  and  _528
REMARK  216  A    between atoms: _528  and  _529
REMARK  217  A    between atoms: _528  and  _531
REMARK  218  A    between atoms: _531  and  _532
REMARK  219  A    between atoms: _532  and  _533
REMARK  220  A    between atoms: _533  and  _534
REMARK  221  A    between atoms: _534  and  _535
REMARK  222  A    between atoms: _539  and  _541
REMARK  223  A    between atoms: _541  and  _542
REMARK  224  A    between atoms: _541  and  _544
REMARK  225  A    between atoms: _544  and  _545
REMARK  226  A    between atoms: _555  and  _557
REMARK  227  A    between atoms: _557  and  _558
REMARK  228  A    between atoms: _561  and  _563
REMARK  229  A    between atoms: _563  and  _564
REMARK  230  A    between atoms: _566  and  _568
REMARK  231  A    between atoms: _568  and  _569
REMARK  232  A    between atoms: _568  and  _571
REMARK  233  A    between atoms: _571  and  _572
REMARK  234  A    between atoms: _572  and  _573
REMARK  235  A    between atoms: _576  and  _578
REMARK  236  A    between atoms: _578  and  _579
REMARK  237  A    between atoms: _578  and  _581
REMARK  238  A    between atoms: _581  and  _582
REMARK  239  A    between atoms: _582  and  _583
REMARK  240  A    between atoms: _583  and  _584
REMARK  241  A    between atoms: _593  and  _595
REMARK  242  A    between atoms: _595  and  _596
REMARK  243  A    between atoms: _595  and  _598
REMARK  244  A    between atoms: _598  and  _599
REMARK  245  A    between atoms: _602  and  _604
REMARK  246  A    between atoms: _604  and  _605
REMARK  247  A    between atoms: _604  and  _607
REMARK  248  A    between atoms: _607  and  _608
REMARK  249  A    between atoms: _613  and  _614
REMARK  250  A    between atoms: _616  and  _618
REMARK  251  A    between atoms: _618  and  _619
REMARK  252  A    between atoms: _618  and  _621
REMARK  253  A    between atoms: _621  and  _622
REMARK  254  A    between atoms: _625  and  _627
REMARK  255  A    between atoms: _627  and  _628
REMARK  256  A    between atoms: _627  and  _630
REMARK  257  A    between atoms: _630  and  _631
REMARK  258  A    between atoms: _634  and  _636
REMARK  259  A    between atoms: _636  and  _637
REMARK  260  A    between atoms: _636  and  _639
REMARK  261  A    between atoms: _639  and  _640
REMARK  262  A    between atoms: _641  and  _643
REMARK  263  A    between atoms: _643  and  _644
REMARK  264  A    between atoms: _643  and  _646
REMARK  265  A    between atoms: _649  and  _651
REMARK  266  A    between atoms: _651  and  _652
REMARK  267  A    between atoms: _651  and  _654
REMARK  268  A    between atoms: _654  and  _655
REMARK  269  A    between atoms: _655  and  _656
REMARK  270  A    between atoms: _659  and  _661
REMARK  271  A    between atoms: _661  and  _662
REMARK  272  A    between atoms: _661  and  _664
REMARK  273  A    between atoms: _664  and  _665
REMARK  274  A    between atoms: _675  and  _677
REMARK  275  A    between atoms: _677  and  _678
REMARK  276  A    between atoms: _677  and  _680
REMARK  277  A    between atoms: _680  and  _681
REMARK  278  A    between atoms: _684  and  _686
REMARK  279  A    between atoms: _686  and  _687
REMARK  280  A    between atoms: _686  and  _689
REMARK  281  A    between atoms: _689  and  _690
REMARK  282  A    between atoms: _695  and  _696
REMARK                            x       y       z     vdW  Elec       q    Type
REMARK                         _______ _______ _______ _____ _____    ______ ____
ROOT
ATOM      1  O   HOH     1      42.323  58.186   3.200  0.00  0.00    +0.000 OA
ENDROOT
TORSDOF 0
REMARK  Name = ../refined-set-2016/1g7q/1g7q_pocket.pdb
REMARK  282 active torsions:
REMARK  status: ('A' for Active; 'I' for Inactive)
REMARK    1  A    between atoms: _1  and  _3
REMARK    2  A    between atoms: _3  and  _4
REMARK    3  A    between atoms: _3  and  _6
REMARK    4  A    between atoms: _6  and  _7
REMARK    5  A    between atoms: _10  and  _12
REMARK    6  A    between atoms: _12  and  _13
REMARK    7  A    between atoms: _12  and  _15
REMARK    8  A    between atoms: _15  and  _16
REMARK    9  A    between atoms: _16  and  _17
REMARK   10  A    between atoms: _17  and  _18
REMARK   11  A    between atoms: _27  and  _29
REMARK   12  A    between atoms: _29  and  _30
REMARK   13  A    between atoms: _29  and  _32
REMARK   14  A    between atoms: _32  and  _33
REMARK   15  A    between atoms: _38  and  _39
REMARK   16  A    between atoms: _41  and  _43
REMARK   17  A    between atoms: _43  and  _44
REMARK   18  A    between atoms: _43  and  _46
REMARK   19  A    between atoms: _46  and  _47
REMARK   20  A    between atoms: _53  and  _55
REMARK   21  A    between atoms: _55  and  _56
REMARK   22  A    between atoms: _55  and  _58
REMARK   23  A    between atoms: _61  and  _63
REMARK   24  A    between atoms: _63  and  _64
REMARK   25  A    between atoms: _63  and  _66
REMARK   26  A    between atoms: _66  and  _67
REMARK   27  A    between atoms: _72  and  _73
REMARK   28  A    between atoms: _75  and  _77
REMARK   29  A    between atoms: _77  and  _78
REMARK   30  A    between atoms: _77  and  _80
REMARK   31  A    between atoms: _80  and  _81
REMARK   32  A    between atoms: _81  and  _82
REMARK   33  A    between atoms: _85  and  _87
REMARK   34  A    between atoms: _87  and  _88
REMARK   35  A    between atoms: _87  and  _90
REMARK   36  A    between atoms: _93  and  _95
REMARK   37  A    between atoms: _95  and  _96
REMARK   38  A    between atoms: _98  and  _100
REMARK   39  A    between atoms: _100  and  _101
REMARK   40  A    between atoms: _100  and  _103
REMARK   41  A    between atoms: _106  and  _108
REMARK   42  A    between atoms: _108  and  _109
REMARK   43  A    between atoms: _108  and  _111
REMARK   44  A    between atoms: _111  and  _112
REMARK   45  A    between atoms: _118  and  _120
REMARK   46  A    between atoms: _120  and  _121
REMARK   47  A    between atoms: _120  and  _123
REMARK   48  A    between atoms: _126  and  _128
REMARK   49  A    between atoms: _128  and  _129
REMARK   50  A    between atoms: _128  and  _131
REMARK   51  A    between atoms: _131  and  _132
REMARK   52  A    between atoms: _137  and  _138
REMARK   53  A    between atoms: _140  and  _142
REMARK   54  A    between atoms: _142  and  _143
REMARK   55  A    between atoms: _142  and  _145
REMARK   56  A    between atoms: _145  and  _146
REMARK   57  A    between atoms: _146  and  _147
REMARK   58  A    between atoms: _149  and  _151
REMARK   59  A    between atoms: _151  and  _152
REMARK   60  A    between atoms: _151  and  _154
REMARK   61  A    between atoms: _154  and  _155
REMARK   62  A    between atoms: _160  and  _161
REMARK   63  A    between atoms: _163  and  _165
REMARK   64  A    between atoms: _165  and  _166
REMARK   65  A    between atoms: _165  and  _168
REMARK   66  A    between atoms: _168  and  _169
REMARK   67  A    between atoms: _169  and  _170
REMARK   68  A    between atoms: _170  and  _171
REMARK   69  A    between atoms: _180  and  _182
REMARK   70  A    between atoms: _182  and  _183
REMARK   71  A    between atoms: _182  and  _185
REMARK   72  A    between atoms: _185  and  _186
REMARK   73  A    between atoms: _186  and  _187
REMARK   74  A    between atoms: _190  and  _192
REMARK   75  A    between atoms: _192  and  _193
REMARK   76  A    between atoms: _192  and  _195
REMARK   77  A    between atoms: _195  and  _196
REMARK   78  A    between atoms: _196  and  _197
REMARK   79  A    between atoms: _202  and  _204
REMARK   80  A    between atoms: _204  and  _205
REMARK   81  A    between atoms: _204  and  _207
REMARK   82  A    between atoms: _207  and  _208
REMARK   83  A    between atoms: _208  and  _209
REMARK   84  A    between atoms: _209  and  _210
REMARK   85  A    between atoms: _210  and  _211
REMARK   86  A    between atoms: _215  and  _217
REMARK   87  A    between atoms: _217  and  _218
REMARK   88  A    between atoms: _221  and  _223
REMARK   89  A    between atoms: _223  and  _224
REMARK   90  A    between atoms: _226  and  _228
REMARK   91  A    between atoms: _228  and  _229
REMARK   92  A    between atoms: _228  and  _231
REMARK   93  A    between atoms: _231  and  _232
REMARK   94  A    between atoms: _237  and  _239
REMARK   95  A    between atoms: _239  and  _240
REMARK   96  A    between atoms: _239  and  _242
REMARK   97  A    between atoms: _242  and  _243
REMARK   98  A    between atoms: _243  and  _244
REMARK   99  A    between atoms: _247  and  _249
REMARK  100  A    between atoms: _249  and  _250
REMARK  101  A    between atoms: _249  and  _252
REMARK  102  A    between atoms: _252  and  _253
REMARK  103  A    between atoms: _253  and  _254
REMARK  104  A    between atoms: _259  and  _261
REMARK  105  A    between atoms: _261  and  _262
REMARK  106  A    between atoms: _261  and  _264
REMARK  107  A    between atoms: _264  and  _265
REMARK  108  A    between atoms: _267  and  _269
REMARK  109  A    between atoms: _269  and  _270
REMARK  110  A    between atoms: _269  and  _272
REMARK  111  A    between atoms: _272  and  _273
REMARK  112  A    between atoms: _279  and  _281
REMARK  113  A    between atoms: _281  and  _282
REMARK  114  A    between atoms: _281  and  _284
REMARK  115  A    between atoms: _284  and  _285
REMARK  116  A    between atoms: _285  and  _286
REMARK  117  A    between atoms: _286  and  _287
REMARK  118  A    between atoms: _296  and  _298
REMARK  119  A    between atoms: _298  and  _299
REMARK  120  A    between atoms: _298  and  _301
REMARK  121  A    between atoms: _304  and  _306
REMARK  122  A    between atoms: _306  and  _307
REMARK  123  A    between atoms: _306  and  _309
REMARK  124  A    between atoms: _309  and  _310
REMARK  125  A    between atoms: _313  and  _315
REMARK  126  A    between atoms: _315  and  _316
REMARK  127  A    between atoms: _315  and  _318
REMARK  128  A    between atoms: _318  and  _319
REMARK  129  A    between atoms: _322  and  _324
REMARK  130  A    between atoms: _324  and  _325
REMARK  131  A    between atoms: _324  and  _327
REMARK  132  A    between atoms: _327  and  _328
REMARK  133  A    between atoms: _331  and  _333
REMARK  134  A    between atoms: _333  and  _334
REMARK  135  A    between atoms: _333  and  _336
REMARK  136  A    between atoms: _336  and  _337
REMARK  137  A    between atoms: _340  and  _342
REMARK  138  A    between atoms: _342  and  _343
REMARK  139  A    between atoms: _342  and  _345
REMARK  140  A    between atoms: _345  and  _346
REMARK  141  A    between atoms: _351  and  _352
REMARK  142  A    between atoms: _354  and  _356
REMARK  143  A    between atoms: _356  and  _357
REMARK  144  A    between atoms: _356  and  _359
REMARK  145  A    between atoms: _359  and  _360
REMARK  146  A    between atoms: _363  and  _365
REMARK  147  A    between atoms: _365  and  _366
REMARK  148  A    between atoms: _365  and  _368
REMARK  149  A    between atoms: _371  and  _373
REMARK  150  A    between atoms: _373  and  _374
REMARK  151  A    between atoms: _373  and  _376
REMARK  152  A    between atoms: _376  and  _377
REMARK  153  A    between atoms: _380  and  _382
REMARK  154  A    between atoms: _382  and  _383
REMARK  155  A    between atoms: _382  and  _385
REMARK  156  A    between atoms: _385  and  _386
REMARK  157  A    between atoms: _388  and  _390
REMARK  158  A    between atoms: _390  and  _391
REMARK  159  A    between atoms: _393  and  _395
REMARK  160  A    between atoms: _395  and  _396
REMARK  161  A    between atoms: _395  and  _398
REMARK  162  A    between atoms: _398  and  _399
REMARK  163  A    between atoms: _399  and  _640
REMARK  164  A    between atoms: _400  and  _402
REMARK  165  A    between atoms: _402  and  _403
REMARK  166  A    between atoms: _402  and  _405
REMARK  167  A    between atoms: _405  and  _406
REMARK  168  A    between atoms: _411  and  _412
REMARK  169  A    between atoms: _414  and  _416
REMARK  170  A    between atoms: _416  and  _417
REMARK  171  A    between atoms: _416  and  _419
REMARK  172  A    between atoms: _419  and  _420
REMARK  173  A    between atoms: _420  and  _421
REMARK  174  A    between atoms: _426  and  _428
REMARK  175  A    between atoms: _428  and  _429
REMARK  176  A    between atoms: _428  and  _431
REMARK  177  A    between atoms: _431  and  _432
REMARK  178  A    between atoms: _437  and  _438
REMARK  179  A    between atoms: _440  and  _442
REMARK  180  A    between atoms: _442  and  _443
REMARK  181  A    between atoms: _442  and  _445
REMARK  182  A    between atoms: _445  and  _446
REMARK  183  A    between atoms: _451  and  _452
REMARK  184  A    between atoms: _454  and  _456
REMARK  185  A    between atoms: _456  and  _457
REMARK  186  A    between atoms: _456  and  _459
REMARK  187  A    between atoms: _459  and  _460
REMARK  188  A    between atoms: _463  and  _465
REMARK  189  A    between atoms: _465  and  _466
REMARK  190  A    between atoms: _469  and  _471
REMARK  191  A    between atoms: _471  and  _472
REMARK  192  A    between atoms: _475  and  _477
REMARK  193  A    between atoms: _477  and  _478
REMARK  194  A    between atoms: _477  and  _480
REMARK  195  A    between atoms: _480  and  _481
REMARK  196  A    between atoms: _484  and  _486
REMARK  197  A    between atoms: _486  and  _487
REMARK  198  A    between atoms: _486  and  _489
REMARK  199  A    between atoms: _489  and  _490
REMARK  200  A    between atoms: _493  and  _495
REMARK  201  A    between atoms: _495  and  _496
REMARK  202  A    between atoms: _495  and  _498
REMARK  203  A    between atoms: _498  and  _499
REMARK  204  A    between atoms: _502  and  _504
REMARK  205  A    between atoms: _504  and  _505
REMARK  206  A    between atoms: _504  and  _507
REMARK  207  A    between atoms: _507  and  _508
REMARK  208  A    between atoms: _508  and  _509
REMARK  209  A    between atoms: _509  and  _510
REMARK  210  A    between atoms: _510  and  _511
REMARK  211  A    between atoms: _515  and  _517
REMARK  212  A    between atoms: _517  and  _518
REMARK  213  A    between atoms: _517  and  _520
REMARK  214  A    between atoms: _520  and  _521
REMARK  215  A    between atoms: _526  and  _528
REMARK  216  A    between atoms: _528  and  _529
REMARK  217  A    between atoms: _528  and  _531
REMARK  218  A    between atoms: _531  and  _532
REMARK  219  A    between atoms: _532  and  _533
REMARK  220  A    between atoms: _533  and  _534
REMARK  221  A    between atoms: _534  and  _535
REMARK  222  A    between atoms: _539  and  _541
REMARK  223  A    between atoms: _541  and  _542
REMARK  224  A    between atoms: _541  and  _544
REMARK  225  A    between atoms: _544  and  _545
REMARK  226  A    between atoms: _555  and  _557
REMARK  227  A    between atoms: _557  and  _558
REMARK  228  A    between atoms: _561  and  _563
REMARK  229  A    between atoms: _563  and  _564
REMARK  230  A    between atoms: _566  and  _568
REMARK  231  A    between atoms: _568  and  _569
REMARK  232  A    between atoms: _568  and  _571
REMARK  233  A    between atoms: _571  and  _572
REMARK  234  A    between atoms: _572  and  _573
REMARK  235  A    between atoms: _576  and  _578
REMARK  236  A    between atoms: _578  and  _579
REMARK  237  A    between atoms: _578  and  _581
REMARK  238  A    between atoms: _581  and  _582
REMARK  239  A    between atoms: _582  and  _583
REMARK  240  A    between atoms: _583  and  _584
REMARK  241  A    between atoms: _593  and  _595
REMARK  242  A    between atoms: _595  and  _596
REMARK  243  A    between atoms: _595  and  _598
REMARK  244  A    between atoms: _598  and  _599
REMARK  245  A    between atoms: _602  and  _604
REMARK  246  A    between atoms: _604  and  _605
REMARK  247  A    between atoms: _604  and  _607
REMARK  248  A    between atoms: _607  and  _608
REMARK  249  A    between atoms: _613  and  _614
REMARK  250  A    between atoms: _616  and  _618
REMARK  251  A    between atoms: _618  and  _619
REMARK  252  A    between atoms: _618  and  _621
REMARK  253  A    between atoms: _621  and  _622
REMARK  254  A    between atoms: _625  and  _627
REMARK  255  A    between atoms: _627  and  _628
REMARK  256  A    between atoms: _627  and  _630
REMARK  257  A    between atoms: _630  and  _631
REMARK  258  A    between atoms: _634  and  _636
REMARK  259  A    between atoms: _636  and  _637
REMARK  260  A    between atoms: _636  and  _639
REMARK  261  A    between atoms: _639  and  _640
REMARK  262  A    between atoms: _641  and  _643
REMARK  263  A    between atoms: _643  and  _644
REMARK  264  A    between atoms: _643  and  _646
REMARK  265  A    between atoms: _649  and  _651
REMARK  266  A    between atoms: _651  and  _652
REMARK  267  A    between atoms: _651  and  _654
REMARK  268  A    between atoms: _654  and  _655
REMARK  269  A    between atoms: _655  and  _656
REMARK  270  A    between atoms: _659  and  _661
REMARK  271  A    between atoms: _661  and  _662
REMARK  272  A    between atoms: _661  and  _664
REMARK  273  A    between atoms: _664  and  _665
REMARK  274  A    between atoms: _675  and  _677
REMARK  275  A    between atoms: _677  and  _678
REMARK  276  A    between atoms: _677  and  _680
REMARK  277  A    between atoms: _680  and  _681
REMARK  278  A    between atoms: _684  and  _686
REMARK  279  A    between atoms: _686  and  _687
REMARK  280  A    between atoms: _686  and  _689
REMARK  281  A    between atoms: _689  and  _690
REMARK  282  A    between atoms: _695  and  _696
REMARK                            x       y       z     vdW  Elec       q    Type
REMARK                         _______ _______ _______ _____ _____    ______ ____
ROOT
ATOM      1  O   HOH     1      29.820  61.102  -5.589  0.00  0.00    +0.000 OA
ENDROOT
TORSDOF 0
REMARK  Name = ../refined-set-2016/1g7q/1g7q_pocket.pdb
REMARK  282 active torsions:
REMARK  status: ('A' for Active; 'I' for Inactive)
REMARK    1  A    between atoms: _1  and  _3
REMARK    2  A    between atoms: _3  and  _4
REMARK    3  A    between atoms: _3  and  _6
REMARK    4  A    between atoms: _6  and  _7
REMARK    5  A    between atoms: _10  and  _12
REMARK    6  A    between atoms: _12  and  _13
REMARK    7  A    between atoms: _12  and  _15
REMARK    8  A    between atoms: _15  and  _16
REMARK    9  A    between atoms: _16  and  _17
REMARK   10  A    between atoms: _17  and  _18
REMARK   11  A    between atoms: _27  and  _29
REMARK   12  A    between atoms: _29  and  _30
REMARK   13  A    between atoms: _29  and  _32
REMARK   14  A    between atoms: _32  and  _33
REMARK   15  A    between atoms: _38  and  _39
REMARK   16  A    between atoms: _41  and  _43
REMARK   17  A    between atoms: _43  and  _44
REMARK   18  A    between atoms: _43  and  _46
REMARK   19  A    between atoms: _46  and  _47
REMARK   20  A    between atoms: _53  and  _55
REMARK   21  A    between atoms: _55  and  _56
REMARK   22  A    between atoms: _55  and  _58
REMARK   23  A    between atoms: _61  and  _63
REMARK   24  A    between atoms: _63  and  _64
REMARK   25  A    between atoms: _63  and  _66
REMARK   26  A    between atoms: _66  and  _67
REMARK   27  A    between atoms: _72  and  _73
REMARK   28  A    between atoms: _75  and  _77
REMARK   29  A    between atoms: _77  and  _78
REMARK   30  A    between atoms: _77  and  _80
REMARK   31  A    between atoms: _80  and  _81
REMARK   32  A    between atoms: _81  and  _82
REMARK   33  A    between atoms: _85  and  _87
REMARK   34  A    between atoms: _87  and  _88
REMARK   35  A    between atoms: _87  and  _90
REMARK   36  A    between atoms: _93  and  _95
REMARK   37  A    between atoms: _95  and  _96
REMARK   38  A    between atoms: _98  and  _100
REMARK   39  A    between atoms: _100  and  _101
REMARK   40  A    between atoms: _100  and  _103
REMARK   41  A    between atoms: _106  and  _108
REMARK   42  A    between atoms: _108  and  _109
REMARK   43  A    between atoms: _108  and  _111
REMARK   44  A    between atoms: _111  and  _112
REMARK   45  A    between atoms: _118  and  _120
REMARK   46  A    between atoms: _120  and  _121
REMARK   47  A    between atoms: _120  and  _123
REMARK   48  A    between atoms: _126  and  _128
REMARK   49  A    between atoms: _128  and  _129
REMARK   50  A    between atoms: _128  and  _131
REMARK   51  A    between atoms: _131  and  _132
REMARK   52  A    between atoms: _137  and  _138
REMARK   53  A    between atoms: _140  and  _142
REMARK   54  A    between atoms: _142  and  _143
REMARK   55  A    between atoms: _142  and  _145
REMARK   56  A    between atoms: _145  and  _146
REMARK   57  A    between atoms: _146  and  _147
REMARK   58  A    between atoms: _149  and  _151
REMARK   59  A    between atoms: _151  and  _152
REMARK   60  A    between atoms: _151  and  _154
REMARK   61  A    between atoms: _154  and  _155
REMARK   62  A    between atoms: _160  and  _161
REMARK   63  A    between atoms: _163  and  _165
REMARK   64  A    between atoms: _165  and  _166
REMARK   65  A    between atoms: _165  and  _168
REMARK   66  A    between atoms: _168  and  _169
REMARK   67  A    between atoms: _169  and  _170
REMARK   68  A    between atoms: _170  and  _171
REMARK   69  A    between atoms: _180  and  _182
REMARK   70  A    between atoms: _182  and  _183
REMARK   71  A    between atoms: _182  and  _185
REMARK   72  A    between atoms: _185  and  _186
REMARK   73  A    between atoms: _186  and  _187
REMARK   74  A    between atoms: _190  and  _192
REMARK   75  A    between atoms: _192  and  _193
REMARK   76  A    between atoms: _192  and  _195
REMARK   77  A    between atoms: _195  and  _196
REMARK   78  A    between atoms: _196  and  _197
REMARK   79  A    between atoms: _202  and  _204
REMARK   80  A    between atoms: _204  and  _205
REMARK   81  A    between atoms: _204  and  _207
REMARK   82  A    between atoms: _207  and  _208
REMARK   83  A    between atoms: _208  and  _209
REMARK   84  A    between atoms: _209  and  _210
REMARK   85  A    between atoms: _210  and  _211
REMARK   86  A    between atoms: _215  and  _217
REMARK   87  A    between atoms: _217  and  _218
REMARK   88  A    between atoms: _221  and  _223
REMARK   89  A    between atoms: _223  and  _224
REMARK   90  A    between atoms: _226  and  _228
REMARK   91  A    between atoms: _228  and  _229
REMARK   92  A    between atoms: _228  and  _231
REMARK   93  A    between atoms: _231  and  _232
REMARK   94  A    between atoms: _237  and  _239
REMARK   95  A    between atoms: _239  and  _240
REMARK   96  A    between atoms: _239  and  _242
REMARK   97  A    between atoms: _242  and  _243
REMARK   98  A    between atoms: _243  and  _244
REMARK   99  A    between atoms: _247  and  _249
REMARK  100  A    between atoms: _249  and  _250
REMARK  101  A    between atoms: _249  and  _252
REMARK  102  A    between atoms: _252  and  _253
REMARK  103  A    between atoms: _253  and  _254
REMARK  104  A    between atoms: _259  and  _261
REMARK  105  A    between atoms: _261  and  _262
REMARK  106  A    between atoms: _261  and  _264
REMARK  107  A    between atoms: _264  and  _265
REMARK  108  A    between atoms: _267  and  _269
REMARK  109  A    between atoms: _269  and  _270
REMARK  110  A    between atoms: _269  and  _272
REMARK  111  A    between atoms: _272  and  _273
REMARK  112  A    between atoms: _279  and  _281
REMARK  113  A    between atoms: _281  and  _282
REMARK  114  A    between atoms: _281  and  _284
REMARK  115  A    between atoms: _284  and  _285
REMARK  116  A    between atoms: _285  and  _286
REMARK  117  A    between atoms: _286  and  _287
REMARK  118  A    between atoms: _296  and  _298
REMARK  119  A    between atoms: _298  and  _299
REMARK  120  A    between atoms: _298  and  _301
REMARK  121  A    between atoms: _304  and  _306
REMARK  122  A    between atoms: _306  and  _307
REMARK  123  A    between atoms: _306  and  _309
REMARK  124  A    between atoms: _309  and  _310
REMARK  125  A    between atoms: _313  and  _315
REMARK  126  A    between atoms: _315  and  _316
REMARK  127  A    between atoms: _315  and  _318
REMARK  128  A    between atoms: _318  and  _319
REMARK  129  A    between atoms: _322  and  _324
REMARK  130  A    between atoms: _324  and  _325
REMARK  131  A    between atoms: _324  and  _327
REMARK  132  A    between atoms: _327  and  _328
REMARK  133  A    between atoms: _331  and  _333
REMARK  134  A    between atoms: _333  and  _334
REMARK  135  A    between atoms: _333  and  _336
REMARK  136  A    between atoms: _336  and  _337
REMARK  137  A    between atoms: _340  and  _342
REMARK  138  A    between atoms: _342  and  _343
REMARK  139  A    between atoms: _342  and  _345
REMARK  140  A    between atoms: _345  and  _346
REMARK  141  A    between atoms: _351  and  _352
REMARK  142  A    between atoms: _354  and  _356
REMARK  143  A    between atoms: _356  and  _357
REMARK  144  A    between atoms: _356  and  _359
REMARK  145  A    between atoms: _359  and  _360
REMARK  146  A    between atoms: _363  and  _365
REMARK  147  A    between atoms: _365  and  _366
REMARK  148  A    between atoms: _365  and  _368
REMARK  149  A    between atoms: _371  and  _373
REMARK  150  A    between atoms: _373  and  _374
REMARK  151  A    between atoms: _373  and  _376
REMARK  152  A    between atoms: _376  and  _377
REMARK  153  A    between atoms: _380  and  _382
REMARK  154  A    between atoms: _382  and  _383
REMARK  155  A    between atoms: _382  and  _385
REMARK  156  A    between atoms: _385  and  _386
REMARK  157  A    between atoms: _388  and  _390
REMARK  158  A    between atoms: _390  and  _391
REMARK  159  A    between atoms: _393  and  _395
REMARK  160  A    between atoms: _395  and  _396
REMARK  161  A    between atoms: _395  and  _398
REMARK  162  A    between atoms: _398  and  _399
REMARK  163  A    between atoms: _399  and  _640
REMARK  164  A    between atoms: _400  and  _402
REMARK  165  A    between atoms: _402  and  _403
REMARK  166  A    between atoms: _402  and  _405
REMARK  167  A    between atoms: _405  and  _406
REMARK  168  A    between atoms: _411  and  _412
REMARK  169  A    between atoms: _414  and  _416
REMARK  170  A    between atoms: _416  and  _417
REMARK  171  A    between atoms: _416  and  _419
REMARK  172  A    between atoms: _419  and  _420
REMARK  173  A    between atoms: _420  and  _421
REMARK  174  A    between atoms: _426  and  _428
REMARK  175  A    between atoms: _428  and  _429
REMARK  176  A    between atoms: _428  and  _431
REMARK  177  A    between atoms: _431  and  _432
REMARK  178  A    between atoms: _437  and  _438
REMARK  179  A    between atoms: _440  and  _442
REMARK  180  A    between atoms: _442  and  _443
REMARK  181  A    between atoms: _442  and  _445
REMARK  182  A    between atoms: _445  and  _446
REMARK  183  A    between atoms: _451  and  _452
REMARK  184  A    between atoms: _454  and  _456
REMARK  185  A    between atoms: _456  and  _457
REMARK  186  A    between atoms: _456  and  _459
REMARK  187  A    between atoms: _459  and  _460
REMARK  188  A    between atoms: _463  and  _465
REMARK  189  A    between atoms: _465  and  _466
REMARK  190  A    between atoms: _469  and  _471
REMARK  191  A    between atoms: _471  and  _472
REMARK  192  A    between atoms: _475  and  _477
REMARK  193  A    between atoms: _477  and  _478
REMARK  194  A    between atoms: _477  and  _480
REMARK  195  A    between atoms: _480  and  _481
REMARK  196  A    between atoms: _484  and  _486
REMARK  197  A    between atoms: _486  and  _487
REMARK  198  A    between atoms: _486  and  _489
REMARK  199  A    between atoms: _489  and  _490
REMARK  200  A    between atoms: _493  and  _495
REMARK  201  A    between atoms: _495  and  _496
REMARK  202  A    between atoms: _495  and  _498
REMARK  203  A    between atoms: _498  and  _499
REMARK  204  A    between atoms: _502  and  _504
REMARK  205  A    between atoms: _504  and  _505
REMARK  206  A    between atoms: _504  and  _507
REMARK  207  A    between atoms: _507  and  _508
REMARK  208  A    between atoms: _508  and  _509
REMARK  209  A    between atoms: _509  and  _510
REMARK  210  A    between atoms: _510  and  _511
REMARK  211  A    between atoms: _515  and  _517
REMARK  212  A    between atoms: _517  and  _518
REMARK  213  A    between atoms: _517  and  _520
REMARK  214  A    between atoms: _520  and  _521
REMARK  215  A    between atoms: _526  and  _528
REMARK  216  A    between atoms: _528  and  _529
REMARK  217  A    between atoms: _528  and  _531
REMARK  218  A    between atoms: _531  and  _532
REMARK  219  A    between atoms: _532  and  _533
REMARK  220  A    between atoms: _533  and  _534
REMARK  221  A    between atoms: _534  and  _535
REMARK  222  A    between atoms: _539  and  _541
REMARK  223  A    between atoms: _541  and  _542
REMARK  224  A    between atoms: _541  and  _544
REMARK  225  A    between atoms: _544  and  _545
REMARK  226  A    between atoms: _555  and  _557
REMARK  227  A    between atoms: _557  and  _558
REMARK  228  A    between atoms: _561  and  _563
REMARK  229  A    between atoms: _563  and  _564
REMARK  230  A    between atoms: _566  and  _568
REMARK  231  A    between atoms: _568  and  _569
REMARK  232  A    between atoms: _568  and  _571
REMARK  233  A    between atoms: _571  and  _572
REMARK  234  A    between atoms: _572  and  _573
REMARK  235  A    between atoms: _576  and  _578
REMARK  236  A    between atoms: _578  and  _579
REMARK  237  A    between atoms: _578  and  _581
REMARK  238  A    between atoms: _581  and  _582
REMARK  239  A    between atoms: _582  and  _583
REMARK  240  A    between atoms: _583  and  _584
REMARK  241  A    between atoms: _593  and  _595
REMARK  242  A    between atoms: _595  and  _596
REMARK  243  A    between atoms: _595  and  _598
REMARK  244  A    between atoms: _598  and  _599
REMARK  245  A    between atoms: _602  and  _604
REMARK  246  A    between atoms: _604  and  _605
REMARK  247  A    between atoms: _604  and  _607
REMARK  248  A    between atoms: _607  and  _608
REMARK  249  A    between atoms: _613  and  _614
REMARK  250  A    between atoms: _616  and  _618
REMARK  251  A    between atoms: _618  and  _619
REMARK  252  A    between atoms: _618  and  _621
REMARK  253  A    between atoms: _621  and  _622
REMARK  254  A    between atoms: _625  and  _627
REMARK  255  A    between atoms: _627  and  _628
REMARK  256  A    between atoms: _627  and  _630
REMARK  257  A    between atoms: _630  and  _631
REMARK  258  A    between atoms: _634  and  _636
REMARK  259  A    between atoms: _636  and  _637
REMARK  260  A    between atoms: _636  and  _639
REMARK  261  A    between atoms: _639  and  _640
REMARK  262  A    between atoms: _641  and  _643
REMARK  263  A    between atoms: _643  and  _644
REMARK  264  A    between atoms: _643  and  _646
REMARK  265  A    between atoms: _649  and  _651
REMARK  266  A    between atoms: _651  and  _652
REMARK  267  A    between atoms: _651  and  _654
REMARK  268  A    between atoms: _654  and  _655
REMARK  269  A    between atoms: _655  and  _656
REMARK  270  A    between atoms: _659  and  _661
REMARK  271  A    between atoms: _661  and  _662
REMARK  272  A    between atoms: _661  and  _664
REMARK  273  A    between atoms: _664  and  _665
REMARK  274  A    between atoms: _675  and  _677
REMARK  275  A    between atoms: _677  and  _678
REMARK  276  A    between atoms: _677  and  _680
REMARK  277  A    between atoms: _680  and  _681
REMARK  278  A    between atoms: _684  and  _686
REMARK  279  A    between atoms: _686  and  _687
REMARK  280  A    between atoms: _686  and  _689
REMARK  281  A    between atoms: _689  and  _690
REMARK  282  A    between atoms: _695  and  _696
REMARK                            x       y       z     vdW  Elec       q    Type
REMARK                         _______ _______ _______ _____ _____    ______ ____
ROOT
ATOM      1  O   HOH     1      29.774  59.488 -13.929  0.00  0.00    +0.000 OA
ENDROOT
TORSDOF 0
REMARK  Name = ../refined-set-2016/1g7q/1g7q_pocket.pdb
REMARK  282 active torsions:
REMARK  status: ('A' for Active; 'I' for Inactive)
REMARK    1  A    between atoms: _1  and  _3
REMARK    2  A    between atoms: _3  and  _4
REMARK    3  A    between atoms: _3  and  _6
REMARK    4  A    between atoms: _6  and  _7
REMARK    5  A    between atoms: _10  and  _12
REMARK    6  A    between atoms: _12  and  _13
REMARK    7  A    between atoms: _12  and  _15
REMARK    8  A    between atoms: _15  and  _16
REMARK    9  A    between atoms: _16  and  _17
REMARK   10  A    between atoms: _17  and  _18
REMARK   11  A    between atoms: _27  and  _29
REMARK   12  A    between atoms: _29  and  _30
REMARK   13  A    between atoms: _29  and  _32
REMARK   14  A    between atoms: _32  and  _33
REMARK   15  A    between atoms: _38  and  _39
REMARK   16  A    between atoms: _41  and  _43
REMARK   17  A    between atoms: _43  and  _44
REMARK   18  A    between atoms: _43  and  _46
REMARK   19  A    between atoms: _46  and  _47
REMARK   20  A    between atoms: _53  and  _55
REMARK   21  A    between atoms: _55  and  _56
REMARK   22  A    between atoms: _55  and  _58
REMARK   23  A    between atoms: _61  and  _63
REMARK   24  A    between atoms: _63  and  _64
REMARK   25  A    between atoms: _63  and  _66
REMARK   26  A    between atoms: _66  and  _67
REMARK   27  A    between atoms: _72  and  _73
REMARK   28  A    between atoms: _75  and  _77
REMARK   29  A    between atoms: _77  and  _78
REMARK   30  A    between atoms: _77  and  _80
REMARK   31  A    between atoms: _80  and  _81
REMARK   32  A    between atoms: _81  and  _82
REMARK   33  A    between atoms: _85  and  _87
REMARK   34  A    between atoms: _87  and  _88
REMARK   35  A    between atoms: _87  and  _90
REMARK   36  A    between atoms: _93  and  _95
REMARK   37  A    between atoms: _95  and  _96
REMARK   38  A    between atoms: _98  and  _100
REMARK   39  A    between atoms: _100  and  _101
REMARK   40  A    between atoms: _100  and  _103
REMARK   41  A    between atoms: _106  and  _108
REMARK   42  A    between atoms: _108  and  _109
REMARK   43  A    between atoms: _108  and  _111
REMARK   44  A    between atoms: _111  and  _112
REMARK   45  A    between atoms: _118  and  _120
REMARK   46  A    between atoms: _120  and  _121
REMARK   47  A    between atoms: _120  and  _123
REMARK   48  A    between atoms: _126  and  _128
REMARK   49  A    between atoms: _128  and  _129
REMARK   50  A    between atoms: _128  and  _131
REMARK   51  A    between atoms: _131  and  _132
REMARK   52  A    between atoms: _137  and  _138
REMARK   53  A    between atoms: _140  and  _142
REMARK   54  A    between atoms: _142  and  _143
REMARK   55  A    between atoms: _142  and  _145
REMARK   56  A    between atoms: _145  and  _146
REMARK   57  A    between atoms: _146  and  _147
REMARK   58  A    between atoms: _149  and  _151
REMARK   59  A    between atoms: _151  and  _152
REMARK   60  A    between atoms: _151  and  _154
REMARK   61  A    between atoms: _154  and  _155
REMARK   62  A    between atoms: _160  and  _161
REMARK   63  A    between atoms: _163  and  _165
REMARK   64  A    between atoms: _165  and  _166
REMARK   65  A    between atoms: _165  and  _168
REMARK   66  A    between atoms: _168  and  _169
REMARK   67  A    between atoms: _169  and  _170
REMARK   68  A    between atoms: _170  and  _171
REMARK   69  A    between atoms: _180  and  _182
REMARK   70  A    between atoms: _182  and  _183
REMARK   71  A    between atoms: _182  and  _185
REMARK   72  A    between atoms: _185  and  _186
REMARK   73  A    between atoms: _186  and  _187
REMARK   74  A    between atoms: _190  and  _192
REMARK   75  A    between atoms: _192  and  _193
REMARK   76  A    between atoms: _192  and  _195
REMARK   77  A    between atoms: _195  and  _196
REMARK   78  A    between atoms: _196  and  _197
REMARK   79  A    between atoms: _202  and  _204
REMARK   80  A    between atoms: _204  and  _205
REMARK   81  A    between atoms: _204  and  _207
REMARK   82  A    between atoms: _207  and  _208
REMARK   83  A    between atoms: _208  and  _209
REMARK   84  A    between atoms: _209  and  _210
REMARK   85  A    between atoms: _210  and  _211
REMARK   86  A    between atoms: _215  and  _217
REMARK   87  A    between atoms: _217  and  _218
REMARK   88  A    between atoms: _221  and  _223
REMARK   89  A    between atoms: _223  and  _224
REMARK   90  A    between atoms: _226  and  _228
REMARK   91  A    between atoms: _228  and  _229
REMARK   92  A    between atoms: _228  and  _231
REMARK   93  A    between atoms: _231  and  _232
REMARK   94  A    between atoms: _237  and  _239
REMARK   95  A    between atoms: _239  and  _240
REMARK   96  A    between atoms: _239  and  _242
REMARK   97  A    between atoms: _242  and  _243
REMARK   98  A    between atoms: _243  and  _244
REMARK   99  A    between atoms: _247  and  _249
REMARK  100  A    between atoms: _249  and  _250
REMARK  101  A    between atoms: _249  and  _252
REMARK  102  A    between atoms: _252  and  _253
REMARK  103  A    between atoms: _253  and  _254
REMARK  104  A    between atoms: _259  and  _261
REMARK  105  A    between atoms: _261  and  _262
REMARK  106  A    between atoms: _261  and  _264
REMARK  107  A    between atoms: _264  and  _265
REMARK  108  A    between atoms: _267  and  _269
REMARK  109  A    between atoms: _269  and  _270
REMARK  110  A    between atoms: _269  and  _272
REMARK  111  A    between atoms: _272  and  _273
REMARK  112  A    between atoms: _279  and  _281
REMARK  113  A    between atoms: _281  and  _282
REMARK  114  A    between atoms: _281  and  _284
REMARK  115  A    between atoms: _284  and  _285
REMARK  116  A    between atoms: _285  and  _286
REMARK  117  A    between atoms: _286  and  _287
REMARK  118  A    between atoms: _296  and  _298
REMARK  119  A    between atoms: _298  and  _299
REMARK  120  A    between atoms: _298  and  _301
REMARK  121  A    between atoms: _304  and  _306
REMARK  122  A    between atoms: _306  and  _307
REMARK  123  A    between atoms: _306  and  _309
REMARK  124  A    between atoms: _309  and  _310
REMARK  125  A    between atoms: _313  and  _315
REMARK  126  A    between atoms: _315  and  _316
REMARK  127  A    between atoms: _315  and  _318
REMARK  128  A    between atoms: _318  and  _319
REMARK  129  A    between atoms: _322  and  _324
REMARK  130  A    between atoms: _324  and  _325
REMARK  131  A    between atoms: _324  and  _327
REMARK  132  A    between atoms: _327  and  _328
REMARK  133  A    between atoms: _331  and  _333
REMARK  134  A    between atoms: _333  and  _334
REMARK  135  A    between atoms: _333  and  _336
REMARK  136  A    between atoms: _336  and  _337
REMARK  137  A    between atoms: _340  and  _342
REMARK  138  A    between atoms: _342  and  _343
REMARK  139  A    between atoms: _342  and  _345
REMARK  140  A    between atoms: _345  and  _346
REMARK  141  A    between atoms: _351  and  _352
REMARK  142  A    between atoms: _354  and  _356
REMARK  143  A    between atoms: _356  and  _357
REMARK  144  A    between atoms: _356  and  _359
REMARK  145  A    between atoms: _359  and  _360
REMARK  146  A    between atoms: _363  and  _365
REMARK  147  A    between atoms: _365  and  _366
REMARK  148  A    between atoms: _365  and  _368
REMARK  149  A    between atoms: _371  and  _373
REMARK  150  A    between atoms: _373  and  _374
REMARK  151  A    between atoms: _373  and  _376
REMARK  152  A    between atoms: _376  and  _377
REMARK  153  A    between atoms: _380  and  _382
REMARK  154  A    between atoms: _382  and  _383
REMARK  155  A    between atoms: _382  and  _385
REMARK  156  A    between atoms: _385  and  _386
REMARK  157  A    between atoms: _388  and  _390
REMARK  158  A    between atoms: _390  and  _391
REMARK  159  A    between atoms: _393  and  _395
REMARK  160  A    between atoms: _395  and  _396
REMARK  161  A    between atoms: _395  and  _398
REMARK  162  A    between atoms: _398  and  _399
REMARK  163  A    between atoms: _399  and  _640
REMARK  164  A    between atoms: _400  and  _402
REMARK  165  A    between atoms: _402  and  _403
REMARK  166  A    between atoms: _402  and  _405
REMARK  167  A    between atoms: _405  and  _406
REMARK  168  A    between atoms: _411  and  _412
REMARK  169  A    between atoms: _414  and  _416
REMARK  170  A    between atoms: _416  and  _417
REMARK  171  A    between atoms: _416  and  _419
REMARK  172  A    between atoms: _419  and  _420
REMARK  173  A    between atoms: _420  and  _421
REMARK  174  A    between atoms: _426  and  _428
REMARK  175  A    between atoms: _428  and  _429
REMARK  176  A    between atoms: _428  and  _431
REMARK  177  A    between atoms: _431  and  _432
REMARK  178  A    between atoms: _437  and  _438
REMARK  179  A    between atoms: _440  and  _442
REMARK  180  A    between atoms: _442  and  _443
REMARK  181  A    between atoms: _442  and  _445
REMARK  182  A    between atoms: _445  and  _446
REMARK  183  A    between atoms: _451  and  _452
REMARK  184  A    between atoms: _454  and  _456
REMARK  185  A    between atoms: _456  and  _457
REMARK  186  A    between atoms: _456  and  _459
REMARK  187  A    between atoms: _459  and  _460
REMARK  188  A    between atoms: _463  and  _465
REMARK  189  A    between atoms: _465  and  _466
REMARK  190  A    between atoms: _469  and  _471
REMARK  191  A    between atoms: _471  and  _472
REMARK  192  A    between atoms: _475  and  _477
REMARK  193  A    between atoms: _477  and  _478
REMARK  194  A    between atoms: _477  and  _480
REMARK  195  A    between atoms: _480  and  _481
REMARK  196  A    between atoms: _484  and  _486
REMARK  197  A    between atoms: _486  and  _487
REMARK  198  A    between atoms: _486  and  _489
REMARK  199  A    between atoms: _489  and  _490
REMARK  200  A    between atoms: _493  and  _495
REMARK  201  A    between atoms: _495  and  _496
REMARK  202  A    between atoms: _495  and  _498
REMARK  203  A    between atoms: _498  and  _499
REMARK  204  A    between atoms: _502  and  _504
REMARK  205  A    between atoms: _504  and  _505
REMARK  206  A    between atoms: _504  and  _507
REMARK  207  A    between atoms: _507  and  _508
REMARK  208  A    between atoms: _508  and  _509
REMARK  209  A    between atoms: _509  and  _510
REMARK  210  A    between atoms: _510  and  _511
REMARK  211  A    between atoms: _515  and  _517
REMARK  212  A    between atoms: _517  and  _518
REMARK  213  A    between atoms: _517  and  _520
REMARK  214  A    between atoms: _520  and  _521
REMARK  215  A    between atoms: _526  and  _528
REMARK  216  A    between atoms: _528  and  _529
REMARK  217  A    between atoms: _528  and  _531
REMARK  218  A    between atoms: _531  and  _532
REMARK  219  A    between atoms: _532  and  _533
REMARK  220  A    between atoms: _533  and  _534
REMARK  221  A    between atoms: _534  and  _535
REMARK  222  A    between atoms: _539  and  _541
REMARK  223  A    between atoms: _541  and  _542
REMARK  224  A    between atoms: _541  and  _544
REMARK  225  A    between atoms: _544  and  _545
REMARK  226  A    between atoms: _555  and  _557
REMARK  227  A    between atoms: _557  and  _558
REMARK  228  A    between atoms: _561  and  _563
REMARK  229  A    between atoms: _563  and  _564
REMARK  230  A    between atoms: _566  and  _568
REMARK  231  A    between atoms: _568  and  _569
REMARK  232  A    between atoms: _568  and  _571
REMARK  233  A    between atoms: _571  and  _572
REMARK  234  A    between atoms: _572  and  _573
REMARK  235  A    between atoms: _576  and  _578
REMARK  236  A    between atoms: _578  and  _579
REMARK  237  A    between atoms: _578  and  _581
REMARK  238  A    between atoms: _581  and  _582
REMARK  239  A    between atoms: _582  and  _583
REMARK  240  A    between atoms: _583  and  _584
REMARK  241  A    between atoms: _593  and  _595
REMARK  242  A    between atoms: _595  and  _596
REMARK  243  A    between atoms: _595  and  _598
REMARK  244  A    between atoms: _598  and  _599
REMARK  245  A    between atoms: _602  and  _604
REMARK  246  A    between atoms: _604  and  _605
REMARK  247  A    between atoms: _604  and  _607
REMARK  248  A    between atoms: _607  and  _608
REMARK  249  A    between atoms: _613  and  _614
REMARK  250  A    between atoms: _616  and  _618
REMARK  251  A    between atoms: _618  and  _619
REMARK  252  A    between atoms: _618  and  _621
REMARK  253  A    between atoms: _621  and  _622
REMARK  254  A    between atoms: _625  and  _627
REMARK  255  A    between atoms: _627  and  _628
REMARK  256  A    between atoms: _627  and  _630
REMARK  257  A    between atoms: _630  and  _631
REMARK  258  A    between atoms: _634  and  _636
REMARK  259  A    between atoms: _636  and  _637
REMARK  260  A    between atoms: _636  and  _639
REMARK  261  A    between atoms: _639  and  _640
REMARK  262  A    between atoms: _641  and  _643
REMARK  263  A    between atoms: _643  and  _644
REMARK  264  A    between atoms: _643  and  _646
REMARK  265  A    between atoms: _649  and  _651
REMARK  266  A    between atoms: _651  and  _652
REMARK  267  A    between atoms: _651  and  _654
REMARK  268  A    between atoms: _654  and  _655
REMARK  269  A    between atoms: _655  and  _656
REMARK  270  A    between atoms: _659  and  _661
REMARK  271  A    between atoms: _661  and  _662
REMARK  272  A    between atoms: _661  and  _664
REMARK  273  A    between atoms: _664  and  _665
REMARK  274  A    between atoms: _675  and  _677
REMARK  275  A    between atoms: _677  and  _678
REMARK  276  A    between atoms: _677  and  _680
REMARK  277  A    between atoms: _680  and  _681
REMARK  278  A    between atoms: _684  and  _686
REMARK  279  A    between atoms: _686  and  _687
REMARK  280  A    between atoms: _686  and  _689
REMARK  281  A    between atoms: _689  and  _690
REMARK  282  A    between atoms: _695  and  _696
REMARK                            x       y       z     vdW  Elec       q    Type
REMARK                         _______ _______ _______ _____ _____    ______ ____
ROOT
ATOM      1  O   HOH     1      50.604  64.374  -1.792  0.00  0.00    +0.000 OA
ENDROOT
TORSDOF 0
REMARK  Name = ../refined-set-2016/1g7q/1g7q_pocket.pdb
REMARK  282 active torsions:
REMARK  status: ('A' for Active; 'I' for Inactive)
REMARK    1  A    between atoms: _1  and  _3
REMARK    2  A    between atoms: _3  and  _4
REMARK    3  A    between atoms: _3  and  _6
REMARK    4  A    between atoms: _6  and  _7
REMARK    5  A    between atoms: _10  and  _12
REMARK    6  A    between atoms: _12  and  _13
REMARK    7  A    between atoms: _12  and  _15
REMARK    8  A    between atoms: _15  and  _16
REMARK    9  A    between atoms: _16  and  _17
REMARK   10  A    between atoms: _17  and  _18
REMARK   11  A    between atoms: _27  and  _29
REMARK   12  A    between atoms: _29  and  _30
REMARK   13  A    between atoms: _29  and  _32
REMARK   14  A    between atoms: _32  and  _33
REMARK   15  A    between atoms: _38  and  _39
REMARK   16  A    between atoms: _41  and  _43
REMARK   17  A    between atoms: _43  and  _44
REMARK   18  A    between atoms: _43  and  _46
REMARK   19  A    between atoms: _46  and  _47
REMARK   20  A    between atoms: _53  and  _55
REMARK   21  A    between atoms: _55  and  _56
REMARK   22  A    between atoms: _55  and  _58
REMARK   23  A    between atoms: _61  and  _63
REMARK   24  A    between atoms: _63  and  _64
REMARK   25  A    between atoms: _63  and  _66
REMARK   26  A    between atoms: _66  and  _67
REMARK   27  A    between atoms: _72  and  _73
REMARK   28  A    between atoms: _75  and  _77
REMARK   29  A    between atoms: _77  and  _78
REMARK   30  A    between atoms: _77  and  _80
REMARK   31  A    between atoms: _80  and  _81
REMARK   32  A    between atoms: _81  and  _82
REMARK   33  A    between atoms: _85  and  _87
REMARK   34  A    between atoms: _87  and  _88
REMARK   35  A    between atoms: _87  and  _90
REMARK   36  A    between atoms: _93  and  _95
REMARK   37  A    between atoms: _95  and  _96
REMARK   38  A    between atoms: _98  and  _100
REMARK   39  A    between atoms: _100  and  _101
REMARK   40  A    between atoms: _100  and  _103
REMARK   41  A    between atoms: _106  and  _108
REMARK   42  A    between atoms: _108  and  _109
REMARK   43  A    between atoms: _108  and  _111
REMARK   44  A    between atoms: _111  and  _112
REMARK   45  A    between atoms: _118  and  _120
REMARK   46  A    between atoms: _120  and  _121
REMARK   47  A    between atoms: _120  and  _123
REMARK   48  A    between atoms: _126  and  _128
REMARK   49  A    between atoms: _128  and  _129
REMARK   50  A    between atoms: _128  and  _131
REMARK   51  A    between atoms: _131  and  _132
REMARK   52  A    between atoms: _137  and  _138
REMARK   53  A    between atoms: _140  and  _142
REMARK   54  A    between atoms: _142  and  _143
REMARK   55  A    between atoms: _142  and  _145
REMARK   56  A    between atoms: _145  and  _146
REMARK   57  A    between atoms: _146  and  _147
REMARK   58  A    between atoms: _149  and  _151
REMARK   59  A    between atoms: _151  and  _152
REMARK   60  A    between atoms: _151  and  _154
REMARK   61  A    between atoms: _154  and  _155
REMARK   62  A    between atoms: _160  and  _161
REMARK   63  A    between atoms: _163  and  _165
REMARK   64  A    between atoms: _165  and  _166
REMARK   65  A    between atoms: _165  and  _168
REMARK   66  A    between atoms: _168  and  _169
REMARK   67  A    between atoms: _169  and  _170
REMARK   68  A    between atoms: _170  and  _171
REMARK   69  A    between atoms: _180  and  _182
REMARK   70  A    between atoms: _182  and  _183
REMARK   71  A    between atoms: _182  and  _185
REMARK   72  A    between atoms: _185  and  _186
REMARK   73  A    between atoms: _186  and  _187
REMARK   74  A    between atoms: _190  and  _192
REMARK   75  A    between atoms: _192  and  _193
REMARK   76  A    between atoms: _192  and  _195
REMARK   77  A    between atoms: _195  and  _196
REMARK   78  A    between atoms: _196  and  _197
REMARK   79  A    between atoms: _202  and  _204
REMARK   80  A    between atoms: _204  and  _205
REMARK   81  A    between atoms: _204  and  _207
REMARK   82  A    between atoms: _207  and  _208
REMARK   83  A    between atoms: _208  and  _209
REMARK   84  A    between atoms: _209  and  _210
REMARK   85  A    between atoms: _210  and  _211
REMARK   86  A    between atoms: _215  and  _217
REMARK   87  A    between atoms: _217  and  _218
REMARK   88  A    between atoms: _221  and  _223
REMARK   89  A    between atoms: _223  and  _224
REMARK   90  A    between atoms: _226  and  _228
REMARK   91  A    between atoms: _228  and  _229
REMARK   92  A    between atoms: _228  and  _231
REMARK   93  A    between atoms: _231  and  _232
REMARK   94  A    between atoms: _237  and  _239
REMARK   95  A    between atoms: _239  and  _240
REMARK   96  A    between atoms: _239  and  _242
REMARK   97  A    between atoms: _242  and  _243
REMARK   98  A    between atoms: _243  and  _244
REMARK   99  A    between atoms: _247  and  _249
REMARK  100  A    between atoms: _249  and  _250
REMARK  101  A    between atoms: _249  and  _252
REMARK  102  A    between atoms: _252  and  _253
REMARK  103  A    between atoms: _253  and  _254
REMARK  104  A    between atoms: _259  and  _261
REMARK  105  A    between atoms: _261  and  _262
REMARK  106  A    between atoms: _261  and  _264
REMARK  107  A    between atoms: _264  and  _265
REMARK  108  A    between atoms: _267  and  _269
REMARK  109  A    between atoms: _269  and  _270
REMARK  110  A    between atoms: _269  and  _272
REMARK  111  A    between atoms: _272  and  _273
REMARK  112  A    between atoms: _279  and  _281
REMARK  113  A    between atoms: _281  and  _282
REMARK  114  A    between atoms: _281  and  _284
REMARK  115  A    between atoms: _284  and  _285
REMARK  116  A    between atoms: _285  and  _286
REMARK  117  A    between atoms: _286  and  _287
REMARK  118  A    between atoms: _296  and  _298
REMARK  119  A    between atoms: _298  and  _299
REMARK  120  A    between atoms: _298  and  _301
REMARK  121  A    between atoms: _304  and  _306
REMARK  122  A    between atoms: _306  and  _307
REMARK  123  A    between atoms: _306  and  _309
REMARK  124  A    between atoms: _309  and  _310
REMARK  125  A    between atoms: _313  and  _315
REMARK  126  A    between atoms: _315  and  _316
REMARK  127  A    between atoms: _315  and  _318
REMARK  128  A    between atoms: _318  and  _319
REMARK  129  A    between atoms: _322  and  _324
REMARK  130  A    between atoms: _324  and  _325
REMARK  131  A    between atoms: _324  and  _327
REMARK  132  A    between atoms: _327  and  _328
REMARK  133  A    between atoms: _331  and  _333
REMARK  134  A    between atoms: _333  and  _334
REMARK  135  A    between atoms: _333  and  _336
REMARK  136  A    between atoms: _336  and  _337
REMARK  137  A    between atoms: _340  and  _342
REMARK  138  A    between atoms: _342  and  _343
REMARK  139  A    between atoms: _342  and  _345
REMARK  140  A    between atoms: _345  and  _346
REMARK  141  A    between atoms: _351  and  _352
REMARK  142  A    between atoms: _354  and  _356
REMARK  143  A    between atoms: _356  and  _357
REMARK  144  A    between atoms: _356  and  _359
REMARK  145  A    between atoms: _359  and  _360
REMARK  146  A    between atoms: _363  and  _365
REMARK  147  A    between atoms: _365  and  _366
REMARK  148  A    between atoms: _365  and  _368
REMARK  149  A    between atoms: _371  and  _373
REMARK  150  A    between atoms: _373  and  _374
REMARK  151  A    between atoms: _373  and  _376
REMARK  152  A    between atoms: _376  and  _377
REMARK  153  A    between atoms: _380  and  _382
REMARK  154  A    between atoms: _382  and  _383
REMARK  155  A    between atoms: _382  and  _385
REMARK  156  A    between atoms: _385  and  _386
REMARK  157  A    between atoms: _388  and  _390
REMARK  158  A    between atoms: _390  and  _391
REMARK  159  A    between atoms: _393  and  _395
REMARK  160  A    between atoms: _395  and  _396
REMARK  161  A    between atoms: _395  and  _398
REMARK  162  A    between atoms: _398  and  _399
REMARK  163  A    between atoms: _399  and  _640
REMARK  164  A    between atoms: _400  and  _402
REMARK  165  A    between atoms: _402  and  _403
REMARK  166  A    between atoms: _402  and  _405
REMARK  167  A    between atoms: _405  and  _406
REMARK  168  A    between atoms: _411  and  _412
REMARK  169  A    between atoms: _414  and  _416
REMARK  170  A    between atoms: _416  and  _417
REMARK  171  A    between atoms: _416  and  _419
REMARK  172  A    between atoms: _419  and  _420
REMARK  173  A    between atoms: _420  and  _421
REMARK  174  A    between atoms: _426  and  _428
REMARK  175  A    between atoms: _428  and  _429
REMARK  176  A    between atoms: _428  and  _431
REMARK  177  A    between atoms: _431  and  _432
REMARK  178  A    between atoms: _437  and  _438
REMARK  179  A    between atoms: _440  and  _442
REMARK  180  A    between atoms: _442  and  _443
REMARK  181  A    between atoms: _442  and  _445
REMARK  182  A    between atoms: _445  and  _446
REMARK  183  A    between atoms: _451  and  _452
REMARK  184  A    between atoms: _454  and  _456
REMARK  185  A    between atoms: _456  and  _457
REMARK  186  A    between atoms: _456  and  _459
REMARK  187  A    between atoms: _459  and  _460
REMARK  188  A    between atoms: _463  and  _465
REMARK  189  A    between atoms: _465  and  _466
REMARK  190  A    between atoms: _469  and  _471
REMARK  191  A    between atoms: _471  and  _472
REMARK  192  A    between atoms: _475  and  _477
REMARK  193  A    between atoms: _477  and  _478
REMARK  194  A    between atoms: _477  and  _480
REMARK  195  A    between atoms: _480  and  _481
REMARK  196  A    between atoms: _484  and  _486
REMARK  197  A    between atoms: _486  and  _487
REMARK  198  A    between atoms: _486  and  _489
REMARK  199  A    between atoms: _489  and  _490
REMARK  200  A    between atoms: _493  and  _495
REMARK  201  A    between atoms: _495  and  _496
REMARK  202  A    between atoms: _495  and  _498
REMARK  203  A    between atoms: _498  and  _499
REMARK  204  A    between atoms: _502  and  _504
REMARK  205  A    between atoms: _504  and  _505
REMARK  206  A    between atoms: _504  and  _507
REMARK  207  A    between atoms: _507  and  _508
REMARK  208  A    between atoms: _508  and  _509
REMARK  209  A    between atoms: _509  and  _510
REMARK  210  A    between atoms: _510  and  _511
REMARK  211  A    between atoms: _515  and  _517
REMARK  212  A    between atoms: _517  and  _518
REMARK  213  A    between atoms: _517  and  _520
REMARK  214  A    between atoms: _520  and  _521
REMARK  215  A    between atoms: _526  and  _528
REMARK  216  A    between atoms: _528  and  _529
REMARK  217  A    between atoms: _528  and  _531
REMARK  218  A    between atoms: _531  and  _532
REMARK  219  A    between atoms: _532  and  _533
REMARK  220  A    between atoms: _533  and  _534
REMARK  221  A    between atoms: _534  and  _535
REMARK  222  A    between atoms: _539  and  _541
REMARK  223  A    between atoms: _541  and  _542
REMARK  224  A    between atoms: _541  and  _544
REMARK  225  A    between atoms: _544  and  _545
REMARK  226  A    between atoms: _555  and  _557
REMARK  227  A    between atoms: _557  and  _558
REMARK  228  A    between atoms: _561  and  _563
REMARK  229  A    between atoms: _563  and  _564
REMARK  230  A    between atoms: _566  and  _568
REMARK  231  A    between atoms: _568  and  _569
REMARK  232  A    between atoms: _568  and  _571
REMARK  233  A    between atoms: _571  and  _572
REMARK  234  A    between atoms: _572  and  _573
REMARK  235  A    between atoms: _576  and  _578
REMARK  236  A    between atoms: _578  and  _579
REMARK  237  A    between atoms: _578  and  _581
REMARK  238  A    between atoms: _581  and  _582
REMARK  239  A    between atoms: _582  and  _583
REMARK  240  A    between atoms: _583  and  _584
REMARK  241  A    between atoms: _593  and  _595
REMARK  242  A    between atoms: _595  and  _596
REMARK  243  A    between atoms: _595  and  _598
REMARK  244  A    between atoms: _598  and  _599
REMARK  245  A    between atoms: _602  and  _604
REMARK  246  A    between atoms: _604  and  _605
REMARK  247  A    between atoms: _604  and  _607
REMARK  248  A    between atoms: _607  and  _608
REMARK  249  A    between atoms: _613  and  _614
REMARK  250  A    between atoms: _616  and  _618
REMARK  251  A    between atoms: _618  and  _619
REMARK  252  A    between atoms: _618  and  _621
REMARK  253  A    between atoms: _621  and  _622
REMARK  254  A    between atoms: _625  and  _627
REMARK  255  A    between atoms: _627  and  _628
REMARK  256  A    between atoms: _627  and  _630
REMARK  257  A    between atoms: _630  and  _631
REMARK  258  A    between atoms: _634  and  _636
REMARK  259  A    between atoms: _636  and  _637
REMARK  260  A    between atoms: _636  and  _639
REMARK  261  A    between atoms: _639  and  _640
REMARK  262  A    between atoms: _641  and  _643
REMARK  263  A    between atoms: _643  and  _644
REMARK  264  A    between atoms: _643  and  _646
REMARK  265  A    between atoms: _649  and  _651
REMARK  266  A    between atoms: _651  and  _652
REMARK  267  A    between atoms: _651  and  _654
REMARK  268  A    between atoms: _654  and  _655
REMARK  269  A    between atoms: _655  and  _656
REMARK  270  A    between atoms: _659  and  _661
REMARK  271  A    between atoms: _661  and  _662
REMARK  272  A    between atoms: _661  and  _664
REMARK  273  A    between atoms: _664  and  _665
REMARK  274  A    between atoms: _675  and  _677
REMARK  275  A    between atoms: _677  and  _678
REMARK  276  A    between atoms: _677  and  _680
REMARK  277  A    between atoms: _680  and  _681
REMARK  278  A    between atoms: _684  and  _686
REMARK  279  A    between atoms: _686  and  _687
REMARK  280  A    between atoms: _686  and  _689
REMARK  281  A    between atoms: _689  and  _690
REMARK  282  A    between atoms: _695  and  _696
REMARK                            x       y       z     vdW  Elec       q    Type
REMARK                         _______ _______ _______ _____ _____    ______ ____
ROOT
ATOM      1  O   HOH     1      39.627  57.246  -9.612  0.00  0.00    +0.000 OA
ENDROOT
TORSDOF 0
REMARK  Name = ../refined-set-2016/1g7q/1g7q_pocket.pdb
REMARK  282 active torsions:
REMARK  status: ('A' for Active; 'I' for Inactive)
REMARK    1  A    between atoms: _1  and  _3
REMARK    2  A    between atoms: _3  and  _4
REMARK    3  A    between atoms: _3  and  _6
REMARK    4  A    between atoms: _6  and  _7
REMARK    5  A    between atoms: _10  and  _12
REMARK    6  A    between atoms: _12  and  _13
REMARK    7  A    between atoms: _12  and  _15
REMARK    8  A    between atoms: _15  and  _16
REMARK    9  A    between atoms: _16  and  _17
REMARK   10  A    between atoms: _17  and  _18
REMARK   11  A    between atoms: _27  and  _29
REMARK   12  A    between atoms: _29  and  _30
REMARK   13  A    between atoms: _29  and  _32
REMARK   14  A    between atoms: _32  and  _33
REMARK   15  A    between atoms: _38  and  _39
REMARK   16  A    between atoms: _41  and  _43
REMARK   17  A    between atoms: _43  and  _44
REMARK   18  A    between atoms: _43  and  _46
REMARK   19  A    between atoms: _46  and  _47
REMARK   20  A    between atoms: _53  and  _55
REMARK   21  A    between atoms: _55  and  _56
REMARK   22  A    between atoms: _55  and  _58
REMARK   23  A    between atoms: _61  and  _63
REMARK   24  A    between atoms: _63  and  _64
REMARK   25  A    between atoms: _63  and  _66
REMARK   26  A    between atoms: _66  and  _67
REMARK   27  A    between atoms: _72  and  _73
REMARK   28  A    between atoms: _75  and  _77
REMARK   29  A    between atoms: _77  and  _78
REMARK   30  A    between atoms: _77  and  _80
REMARK   31  A    between atoms: _80  and  _81
REMARK   32  A    between atoms: _81  and  _82
REMARK   33  A    between atoms: _85  and  _87
REMARK   34  A    between atoms: _87  and  _88
REMARK   35  A    between atoms: _87  and  _90
REMARK   36  A    between atoms: _93  and  _95
REMARK   37  A    between atoms: _95  and  _96
REMARK   38  A    between atoms: _98  and  _100
REMARK   39  A    between atoms: _100  and  _101
REMARK   40  A    between atoms: _100  and  _103
REMARK   41  A    between atoms: _106  and  _108
REMARK   42  A    between atoms: _108  and  _109
REMARK   43  A    between atoms: _108  and  _111
REMARK   44  A    between atoms: _111  and  _112
REMARK   45  A    between atoms: _118  and  _120
REMARK   46  A    between atoms: _120  and  _121
REMARK   47  A    between atoms: _120  and  _123
REMARK   48  A    between atoms: _126  and  _128
REMARK   49  A    between atoms: _128  and  _129
REMARK   50  A    between atoms: _128  and  _131
REMARK   51  A    between atoms: _131  and  _132
REMARK   52  A    between atoms: _137  and  _138
REMARK   53  A    between atoms: _140  and  _142
REMARK   54  A    between atoms: _142  and  _143
REMARK   55  A    between atoms: _142  and  _145
REMARK   56  A    between atoms: _145  and  _146
REMARK   57  A    between atoms: _146  and  _147
REMARK   58  A    between atoms: _149  and  _151
REMARK   59  A    between atoms: _151  and  _152
REMARK   60  A    between atoms: _151  and  _154
REMARK   61  A    between atoms: _154  and  _155
REMARK   62  A    between atoms: _160  and  _161
REMARK   63  A    between atoms: _163  and  _165
REMARK   64  A    between atoms: _165  and  _166
REMARK   65  A    between atoms: _165  and  _168
REMARK   66  A    between atoms: _168  and  _169
REMARK   67  A    between atoms: _169  and  _170
REMARK   68  A    between atoms: _170  and  _171
REMARK   69  A    between atoms: _180  and  _182
REMARK   70  A    between atoms: _182  and  _183
REMARK   71  A    between atoms: _182  and  _185
REMARK   72  A    between atoms: _185  and  _186
REMARK   73  A    between atoms: _186  and  _187
REMARK   74  A    between atoms: _190  and  _192
REMARK   75  A    between atoms: _192  and  _193
REMARK   76  A    between atoms: _192  and  _195
REMARK   77  A    between atoms: _195  and  _196
REMARK   78  A    between atoms: _196  and  _197
REMARK   79  A    between atoms: _202  and  _204
REMARK   80  A    between atoms: _204  and  _205
REMARK   81  A    between atoms: _204  and  _207
REMARK   82  A    between atoms: _207  and  _208
REMARK   83  A    between atoms: _208  and  _209
REMARK   84  A    between atoms: _209  and  _210
REMARK   85  A    between atoms: _210  and  _211
REMARK   86  A    between atoms: _215  and  _217
REMARK   87  A    between atoms: _217  and  _218
REMARK   88  A    between atoms: _221  and  _223
REMARK   89  A    between atoms: _223  and  _224
REMARK   90  A    between atoms: _226  and  _228
REMARK   91  A    between atoms: _228  and  _229
REMARK   92  A    between atoms: _228  and  _231
REMARK   93  A    between atoms: _231  and  _232
REMARK   94  A    between atoms: _237  and  _239
REMARK   95  A    between atoms: _239  and  _240
REMARK   96  A    between atoms: _239  and  _242
REMARK   97  A    between atoms: _242  and  _243
REMARK   98  A    between atoms: _243  and  _244
REMARK   99  A    between atoms: _247  and  _249
REMARK  100  A    between atoms: _249  and  _250
REMARK  101  A    between atoms: _249  and  _252
REMARK  102  A    between atoms: _252  and  _253
REMARK  103  A    between atoms: _253  and  _254
REMARK  104  A    between atoms: _259  and  _261
REMARK  105  A    between atoms: _261  and  _262
REMARK  106  A    between atoms: _261  and  _264
REMARK  107  A    between atoms: _264  and  _265
REMARK  108  A    between atoms: _267  and  _269
REMARK  109  A    between atoms: _269  and  _270
REMARK  110  A    between atoms: _269  and  _272
REMARK  111  A    between atoms: _272  and  _273
REMARK  112  A    between atoms: _279  and  _281
REMARK  113  A    between atoms: _281  and  _282
REMARK  114  A    between atoms: _281  and  _284
REMARK  115  A    between atoms: _284  and  _285
REMARK  116  A    between atoms: _285  and  _286
REMARK  117  A    between atoms: _286  and  _287
REMARK  118  A    between atoms: _296  and  _298
REMARK  119  A    between atoms: _298  and  _299
REMARK  120  A    between atoms: _298  and  _301
REMARK  121  A    between atoms: _304  and  _306
REMARK  122  A    between atoms: _306  and  _307
REMARK  123  A    between atoms: _306  and  _309
REMARK  124  A    between atoms: _309  and  _310
REMARK  125  A    between atoms: _313  and  _315
REMARK  126  A    between atoms: _315  and  _316
REMARK  127  A    between atoms: _315  and  _318
REMARK  128  A    between atoms: _318  and  _319
REMARK  129  A    between atoms: _322  and  _324
REMARK  130  A    between atoms: _324  and  _325
REMARK  131  A    between atoms: _324  and  _327
REMARK  132  A    between atoms: _327  and  _328
REMARK  133  A    between atoms: _331  and  _333
REMARK  134  A    between atoms: _333  and  _334
REMARK  135  A    between atoms: _333  and  _336
REMARK  136  A    between atoms: _336  and  _337
REMARK  137  A    between atoms: _340  and  _342
REMARK  138  A    between atoms: _342  and  _343
REMARK  139  A    between atoms: _342  and  _345
REMARK  140  A    between atoms: _345  and  _346
REMARK  141  A    between atoms: _351  and  _352
REMARK  142  A    between atoms: _354  and  _356
REMARK  143  A    between atoms: _356  and  _357
REMARK  144  A    between atoms: _356  and  _359
REMARK  145  A    between atoms: _359  and  _360
REMARK  146  A    between atoms: _363  and  _365
REMARK  147  A    between atoms: _365  and  _366
REMARK  148  A    between atoms: _365  and  _368
REMARK  149  A    between atoms: _371  and  _373
REMARK  150  A    between atoms: _373  and  _374
REMARK  151  A    between atoms: _373  and  _376
REMARK  152  A    between atoms: _376  and  _377
REMARK  153  A    between atoms: _380  and  _382
REMARK  154  A    between atoms: _382  and  _383
REMARK  155  A    between atoms: _382  and  _385
REMARK  156  A    between atoms: _385  and  _386
REMARK  157  A    between atoms: _388  and  _390
REMARK  158  A    between atoms: _390  and  _391
REMARK  159  A    between atoms: _393  and  _395
REMARK  160  A    between atoms: _395  and  _396
REMARK  161  A    between atoms: _395  and  _398
REMARK  162  A    between atoms: _398  and  _399
REMARK  163  A    between atoms: _399  and  _640
REMARK  164  A    between atoms: _400  and  _402
REMARK  165  A    between atoms: _402  and  _403
REMARK  166  A    between atoms: _402  and  _405
REMARK  167  A    between atoms: _405  and  _406
REMARK  168  A    between atoms: _411  and  _412
REMARK  169  A    between atoms: _414  and  _416
REMARK  170  A    between atoms: _416  and  _417
REMARK  171  A    between atoms: _416  and  _419
REMARK  172  A    between atoms: _419  and  _420
REMARK  173  A    between atoms: _420  and  _421
REMARK  174  A    between atoms: _426  and  _428
REMARK  175  A    between atoms: _428  and  _429
REMARK  176  A    between atoms: _428  and  _431
REMARK  177  A    between atoms: _431  and  _432
REMARK  178  A    between atoms: _437  and  _438
REMARK  179  A    between atoms: _440  and  _442
REMARK  180  A    between atoms: _442  and  _443
REMARK  181  A    between atoms: _442  and  _445
REMARK  182  A    between atoms: _445  and  _446
REMARK  183  A    between atoms: _451  and  _452
REMARK  184  A    between atoms: _454  and  _456
REMARK  185  A    between atoms: _456  and  _457
REMARK  186  A    between atoms: _456  and  _459
REMARK  187  A    between atoms: _459  and  _460
REMARK  188  A    between atoms: _463  and  _465
REMARK  189  A    between atoms: _465  and  _466
REMARK  190  A    between atoms: _469  and  _471
REMARK  191  A    between atoms: _471  and  _472
REMARK  192  A    between atoms: _475  and  _477
REMARK  193  A    between atoms: _477  and  _478
REMARK  194  A    between atoms: _477  and  _480
REMARK  195  A    between atoms: _480  and  _481
REMARK  196  A    between atoms: _484  and  _486
REMARK  197  A    between atoms: _486  and  _487
REMARK  198  A    between atoms: _486  and  _489
REMARK  199  A    between atoms: _489  and  _490
REMARK  200  A    between atoms: _493  and  _495
REMARK  201  A    between atoms: _495  and  _496
REMARK  202  A    between atoms: _495  and  _498
REMARK  203  A    between atoms: _498  and  _499
REMARK  204  A    between atoms: _502  and  _504
REMARK  205  A    between atoms: _504  and  _505
REMARK  206  A    between atoms: _504  and  _507
REMARK  207  A    between atoms: _507  and  _508
REMARK  208  A    between atoms: _508  and  _509
REMARK  209  A    between atoms: _509  and  _510
REMARK  210  A    between atoms: _510  and  _511
REMARK  211  A    between atoms: _515  and  _517
REMARK  212  A    between atoms: _517  and  _518
REMARK  213  A    between atoms: _517  and  _520
REMARK  214  A    between atoms: _520  and  _521
REMARK  215  A    between atoms: _526  and  _528
REMARK  216  A    between atoms: _528  and  _529
REMARK  217  A    between atoms: _528  and  _531
REMARK  218  A    between atoms: _531  and  _532
REMARK  219  A    between atoms: _532  and  _533
REMARK  220  A    between atoms: _533  and  _534
REMARK  221  A    between atoms: _534  and  _535
REMARK  222  A    between atoms: _539  and  _541
REMARK  223  A    between atoms: _541  and  _542
REMARK  224  A    between atoms: _541  and  _544
REMARK  225  A    between atoms: _544  and  _545
REMARK  226  A    between atoms: _555  and  _557
REMARK  227  A    between atoms: _557  and  _558
REMARK  228  A    between atoms: _561  and  _563
REMARK  229  A    between atoms: _563  and  _564
REMARK  230  A    between atoms: _566  and  _568
REMARK  231  A    between atoms: _568  and  _569
REMARK  232  A    between atoms: _568  and  _571
REMARK  233  A    between atoms: _571  and  _572
REMARK  234  A    between atoms: _572  and  _573
REMARK  235  A    between atoms: _576  and  _578
REMARK  236  A    between atoms: _578  and  _579
REMARK  237  A    between atoms: _578  and  _581
REMARK  238  A    between atoms: _581  and  _582
REMARK  239  A    between atoms: _582  and  _583
REMARK  240  A    between atoms: _583  and  _584
REMARK  241  A    between atoms: _593  and  _595
REMARK  242  A    between atoms: _595  and  _596
REMARK  243  A    between atoms: _595  and  _598
REMARK  244  A    between atoms: _598  and  _599
REMARK  245  A    between atoms: _602  and  _604
REMARK  246  A    between atoms: _604  and  _605
REMARK  247  A    between atoms: _604  and  _607
REMARK  248  A    between atoms: _607  and  _608
REMARK  249  A    between atoms: _613  and  _614
REMARK  250  A    between atoms: _616  and  _618
REMARK  251  A    between atoms: _618  and  _619
REMARK  252  A    between atoms: _618  and  _621
REMARK  253  A    between atoms: _621  and  _622
REMARK  254  A    between atoms: _625  and  _627
REMARK  255  A    between atoms: _627  and  _628
REMARK  256  A    between atoms: _627  and  _630
REMARK  257  A    between atoms: _630  and  _631
REMARK  258  A    between atoms: _634  and  _636
REMARK  259  A    between atoms: _636  and  _637
REMARK  260  A    between atoms: _636  and  _639
REMARK  261  A    between atoms: _639  and  _640
REMARK  262  A    between atoms: _641  and  _643
REMARK  263  A    between atoms: _643  and  _644
REMARK  264  A    between atoms: _643  and  _646
REMARK  265  A    between atoms: _649  and  _651
REMARK  266  A    between atoms: _651  and  _652
REMARK  267  A    between atoms: _651  and  _654
REMARK  268  A    between atoms: _654  and  _655
REMARK  269  A    between atoms: _655  and  _656
REMARK  270  A    between atoms: _659  and  _661
REMARK  271  A    between atoms: _661  and  _662
REMARK  272  A    between atoms: _661  and  _664
REMARK  273  A    between atoms: _664  and  _665
REMARK  274  A    between atoms: _675  and  _677
REMARK  275  A    between atoms: _677  and  _678
REMARK  276  A    between atoms: _677  and  _680
REMARK  277  A    between atoms: _680  and  _681
REMARK  278  A    between atoms: _684  and  _686
REMARK  279  A    between atoms: _686  and  _687
REMARK  280  A    between atoms: _686  and  _689
REMARK  281  A    between atoms: _689  and  _690
REMARK  282  A    between atoms: _695  and  _696
REMARK                            x       y       z     vdW  Elec       q    Type
REMARK                         _______ _______ _______ _____ _____    ______ ____
ROOT
ATOM      1  O   HOH     1      50.382  65.233  -4.659  0.00  0.00    +0.000 OA
ENDROOT
TORSDOF 0
REMARK  Name = ../refined-set-2016/1g7q/1g7q_pocket.pdb
REMARK  282 active torsions:
REMARK  status: ('A' for Active; 'I' for Inactive)
REMARK    1  A    between atoms: _1  and  _3
REMARK    2  A    between atoms: _3  and  _4
REMARK    3  A    between atoms: _3  and  _6
REMARK    4  A    between atoms: _6  and  _7
REMARK    5  A    between atoms: _10  and  _12
REMARK    6  A    between atoms: _12  and  _13
REMARK    7  A    between atoms: _12  and  _15
REMARK    8  A    between atoms: _15  and  _16
REMARK    9  A    between atoms: _16  and  _17
REMARK   10  A    between atoms: _17  and  _18
REMARK   11  A    between atoms: _27  and  _29
REMARK   12  A    between atoms: _29  and  _30
REMARK   13  A    between atoms: _29  and  _32
REMARK   14  A    between atoms: _32  and  _33
REMARK   15  A    between atoms: _38  and  _39
REMARK   16  A    between atoms: _41  and  _43
REMARK   17  A    between atoms: _43  and  _44
REMARK   18  A    between atoms: _43  and  _46
REMARK   19  A    between atoms: _46  and  _47
REMARK   20  A    between atoms: _53  and  _55
REMARK   21  A    between atoms: _55  and  _56
REMARK   22  A    between atoms: _55  and  _58
REMARK   23  A    between atoms: _61  and  _63
REMARK   24  A    between atoms: _63  and  _64
REMARK   25  A    between atoms: _63  and  _66
REMARK   26  A    between atoms: _66  and  _67
REMARK   27  A    between atoms: _72  and  _73
REMARK   28  A    between atoms: _75  and  _77
REMARK   29  A    between atoms: _77  and  _78
REMARK   30  A    between atoms: _77  and  _80
REMARK   31  A    between atoms: _80  and  _81
REMARK   32  A    between atoms: _81  and  _82
REMARK   33  A    between atoms: _85  and  _87
REMARK   34  A    between atoms: _87  and  _88
REMARK   35  A    between atoms: _87  and  _90
REMARK   36  A    between atoms: _93  and  _95
REMARK   37  A    between atoms: _95  and  _96
REMARK   38  A    between atoms: _98  and  _100
REMARK   39  A    between atoms: _100  and  _101
REMARK   40  A    between atoms: _100  and  _103
REMARK   41  A    between atoms: _106  and  _108
REMARK   42  A    between atoms: _108  and  _109
REMARK   43  A    between atoms: _108  and  _111
REMARK   44  A    between atoms: _111  and  _112
REMARK   45  A    between atoms: _118  and  _120
REMARK   46  A    between atoms: _120  and  _121
REMARK   47  A    between atoms: _120  and  _123
REMARK   48  A    between atoms: _126  and  _128
REMARK   49  A    between atoms: _128  and  _129
REMARK   50  A    between atoms: _128  and  _131
REMARK   51  A    between atoms: _131  and  _132
REMARK   52  A    between atoms: _137  and  _138
REMARK   53  A    between atoms: _140  and  _142
REMARK   54  A    between atoms: _142  and  _143
REMARK   55  A    between atoms: _142  and  _145
REMARK   56  A    between atoms: _145  and  _146
REMARK   57  A    between atoms: _146  and  _147
REMARK   58  A    between atoms: _149  and  _151
REMARK   59  A    between atoms: _151  and  _152
REMARK   60  A    between atoms: _151  and  _154
REMARK   61  A    between atoms: _154  and  _155
REMARK   62  A    between atoms: _160  and  _161
REMARK   63  A    between atoms: _163  and  _165
REMARK   64  A    between atoms: _165  and  _166
REMARK   65  A    between atoms: _165  and  _168
REMARK   66  A    between atoms: _168  and  _169
REMARK   67  A    between atoms: _169  and  _170
REMARK   68  A    between atoms: _170  and  _171
REMARK   69  A    between atoms: _180  and  _182
REMARK   70  A    between atoms: _182  and  _183
REMARK   71  A    between atoms: _182  and  _185
REMARK   72  A    between atoms: _185  and  _186
REMARK   73  A    between atoms: _186  and  _187
REMARK   74  A    between atoms: _190  and  _192
REMARK   75  A    between atoms: _192  and  _193
REMARK   76  A    between atoms: _192  and  _195
REMARK   77  A    between atoms: _195  and  _196
REMARK   78  A    between atoms: _196  and  _197
REMARK   79  A    between atoms: _202  and  _204
REMARK   80  A    between atoms: _204  and  _205
REMARK   81  A    between atoms: _204  and  _207
REMARK   82  A    between atoms: _207  and  _208
REMARK   83  A    between atoms: _208  and  _209
REMARK   84  A    between atoms: _209  and  _210
REMARK   85  A    between atoms: _210  and  _211
REMARK   86  A    between atoms: _215  and  _217
REMARK   87  A    between atoms: _217  and  _218
REMARK   88  A    between atoms: _221  and  _223
REMARK   89  A    between atoms: _223  and  _224
REMARK   90  A    between atoms: _226  and  _228
REMARK   91  A    between atoms: _228  and  _229
REMARK   92  A    between atoms: _228  and  _231
REMARK   93  A    between atoms: _231  and  _232
REMARK   94  A    between atoms: _237  and  _239
REMARK   95  A    between atoms: _239  and  _240
REMARK   96  A    between atoms: _239  and  _242
REMARK   97  A    between atoms: _242  and  _243
REMARK   98  A    between atoms: _243  and  _244
REMARK   99  A    between atoms: _247  and  _249
REMARK  100  A    between atoms: _249  and  _250
REMARK  101  A    between atoms: _249  and  _252
REMARK  102  A    between atoms: _252  and  _253
REMARK  103  A    between atoms: _253  and  _254
REMARK  104  A    between atoms: _259  and  _261
REMARK  105  A    between atoms: _261  and  _262
REMARK  106  A    between atoms: _261  and  _264
REMARK  107  A    between atoms: _264  and  _265
REMARK  108  A    between atoms: _267  and  _269
REMARK  109  A    between atoms: _269  and  _270
REMARK  110  A    between atoms: _269  and  _272
REMARK  111  A    between atoms: _272  and  _273
REMARK  112  A    between atoms: _279  and  _281
REMARK  113  A    between atoms: _281  and  _282
REMARK  114  A    between atoms: _281  and  _284
REMARK  115  A    between atoms: _284  and  _285
REMARK  116  A    between atoms: _285  and  _286
REMARK  117  A    between atoms: _286  and  _287
REMARK  118  A    between atoms: _296  and  _298
REMARK  119  A    between atoms: _298  and  _299
REMARK  120  A    between atoms: _298  and  _301
REMARK  121  A    between atoms: _304  and  _306
REMARK  122  A    between atoms: _306  and  _307
REMARK  123  A    between atoms: _306  and  _309
REMARK  124  A    between atoms: _309  and  _310
REMARK  125  A    between atoms: _313  and  _315
REMARK  126  A    between atoms: _315  and  _316
REMARK  127  A    between atoms: _315  and  _318
REMARK  128  A    between atoms: _318  and  _319
REMARK  129  A    between atoms: _322  and  _324
REMARK  130  A    between atoms: _324  and  _325
REMARK  131  A    between atoms: _324  and  _327
REMARK  132  A    between atoms: _327  and  _328
REMARK  133  A    between atoms: _331  and  _333
REMARK  134  A    between atoms: _333  and  _334
REMARK  135  A    between atoms: _333  and  _336
REMARK  136  A    between atoms: _336  and  _337
REMARK  137  A    between atoms: _340  and  _342
REMARK  138  A    between atoms: _342  and  _343
REMARK  139  A    between atoms: _342  and  _345
REMARK  140  A    between atoms: _345  and  _346
REMARK  141  A    between atoms: _351  and  _352
REMARK  142  A    between atoms: _354  and  _356
REMARK  143  A    between atoms: _356  and  _357
REMARK  144  A    between atoms: _356  and  _359
REMARK  145  A    between atoms: _359  and  _360
REMARK  146  A    between atoms: _363  and  _365
REMARK  147  A    between atoms: _365  and  _366
REMARK  148  A    between atoms: _365  and  _368
REMARK  149  A    between atoms: _371  and  _373
REMARK  150  A    between atoms: _373  and  _374
REMARK  151  A    between atoms: _373  and  _376
REMARK  152  A    between atoms: _376  and  _377
REMARK  153  A    between atoms: _380  and  _382
REMARK  154  A    between atoms: _382  and  _383
REMARK  155  A    between atoms: _382  and  _385
REMARK  156  A    between atoms: _385  and  _386
REMARK  157  A    between atoms: _388  and  _390
REMARK  158  A    between atoms: _390  and  _391
REMARK  159  A    between atoms: _393  and  _395
REMARK  160  A    between atoms: _395  and  _396
REMARK  161  A    between atoms: _395  and  _398
REMARK  162  A    between atoms: _398  and  _399
REMARK  163  A    between atoms: _399  and  _640
REMARK  164  A    between atoms: _400  and  _402
REMARK  165  A    between atoms: _402  and  _403
REMARK  166  A    between atoms: _402  and  _405
REMARK  167  A    between atoms: _405  and  _406
REMARK  168  A    between atoms: _411  and  _412
REMARK  169  A    between atoms: _414  and  _416
REMARK  170  A    between atoms: _416  and  _417
REMARK  171  A    between atoms: _416  and  _419
REMARK  172  A    between atoms: _419  and  _420
REMARK  173  A    between atoms: _420  and  _421
REMARK  174  A    between atoms: _426  and  _428
REMARK  175  A    between atoms: _428  and  _429
REMARK  176  A    between atoms: _428  and  _431
REMARK  177  A    between atoms: _431  and  _432
REMARK  178  A    between atoms: _437  and  _438
REMARK  179  A    between atoms: _440  and  _442
REMARK  180  A    between atoms: _442  and  _443
REMARK  181  A    between atoms: _442  and  _445
REMARK  182  A    between atoms: _445  and  _446
REMARK  183  A    between atoms: _451  and  _452
REMARK  184  A    between atoms: _454  and  _456
REMARK  185  A    between atoms: _456  and  _457
REMARK  186  A    between atoms: _456  and  _459
REMARK  187  A    between atoms: _459  and  _460
REMARK  188  A    between atoms: _463  and  _465
REMARK  189  A    between atoms: _465  and  _466
REMARK  190  A    between atoms: _469  and  _471
REMARK  191  A    between atoms: _471  and  _472
REMARK  192  A    between atoms: _475  and  _477
REMARK  193  A    between atoms: _477  and  _478
REMARK  194  A    between atoms: _477  and  _480
REMARK  195  A    between atoms: _480  and  _481
REMARK  196  A    between atoms: _484  and  _486
REMARK  197  A    between atoms: _486  and  _487
REMARK  198  A    between atoms: _486  and  _489
REMARK  199  A    between atoms: _489  and  _490
REMARK  200  A    between atoms: _493  and  _495
REMARK  201  A    between atoms: _495  and  _496
REMARK  202  A    between atoms: _495  and  _498
REMARK  203  A    between atoms: _498  and  _499
REMARK  204  A    between atoms: _502  and  _504
REMARK  205  A    between atoms: _504  and  _505
REMARK  206  A    between atoms: _504  and  _507
REMARK  207  A    between atoms: _507  and  _508
REMARK  208  A    between atoms: _508  and  _509
REMARK  209  A    between atoms: _509  and  _510
REMARK  210  A    between atoms: _510  and  _511
REMARK  211  A    between atoms: _515  and  _517
REMARK  212  A    between atoms: _517  and  _518
REMARK  213  A    between atoms: _517  and  _520
REMARK  214  A    between atoms: _520  and  _521
REMARK  215  A    between atoms: _526  and  _528
REMARK  216  A    between atoms: _528  and  _529
REMARK  217  A    between atoms: _528  and  _531
REMARK  218  A    between atoms: _531  and  _532
REMARK  219  A    between atoms: _532  and  _533
REMARK  220  A    between atoms: _533  and  _534
REMARK  221  A    between atoms: _534  and  _535
REMARK  222  A    between atoms: _539  and  _541
REMARK  223  A    between atoms: _541  and  _542
REMARK  224  A    between atoms: _541  and  _544
REMARK  225  A    between atoms: _544  and  _545
REMARK  226  A    between atoms: _555  and  _557
REMARK  227  A    between atoms: _557  and  _558
REMARK  228  A    between atoms: _561  and  _563
REMARK  229  A    between atoms: _563  and  _564
REMARK  230  A    between atoms: _566  and  _568
REMARK  231  A    between atoms: _568  and  _569
REMARK  232  A    between atoms: _568  and  _571
REMARK  233  A    between atoms: _571  and  _572
REMARK  234  A    between atoms: _572  and  _573
REMARK  235  A    between atoms: _576  and  _578
REMARK  236  A    between atoms: _578  and  _579
REMARK  237  A    between atoms: _578  and  _581
REMARK  238  A    between atoms: _581  and  _582
REMARK  239  A    between atoms: _582  and  _583
REMARK  240  A    between atoms: _583  and  _584
REMARK  241  A    between atoms: _593  and  _595
REMARK  242  A    between atoms: _595  and  _596
REMARK  243  A    between atoms: _595  and  _598
REMARK  244  A    between atoms: _598  and  _599
REMARK  245  A    between atoms: _602  and  _604
REMARK  246  A    between atoms: _604  and  _605
REMARK  247  A    between atoms: _604  and  _607
REMARK  248  A    between atoms: _607  and  _608
REMARK  249  A    between atoms: _613  and  _614
REMARK  250  A    between atoms: _616  and  _618
REMARK  251  A    between atoms: _618  and  _619
REMARK  252  A    between atoms: _618  and  _621
REMARK  253  A    between atoms: _621  and  _622
REMARK  254  A    between atoms: _625  and  _627
REMARK  255  A    between atoms: _627  and  _628
REMARK  256  A    between atoms: _627  and  _630
REMARK  257  A    between atoms: _630  and  _631
REMARK  258  A    between atoms: _634  and  _636
REMARK  259  A    between atoms: _636  and  _637
REMARK  260  A    between atoms: _636  and  _639
REMARK  261  A    between atoms: _639  and  _640
REMARK  262  A    between atoms: _641  and  _643
REMARK  263  A    between atoms: _643  and  _644
REMARK  264  A    between atoms: _643  and  _646
REMARK  265  A    between atoms: _649  and  _651
REMARK  266  A    between atoms: _651  and  _652
REMARK  267  A    between atoms: _651  and  _654
REMARK  268  A    between atoms: _654  and  _655
REMARK  269  A    between atoms: _655  and  _656
REMARK  270  A    between atoms: _659  and  _661
REMARK  271  A    between atoms: _661  and  _662
REMARK  272  A    between atoms: _661  and  _664
REMARK  273  A    between atoms: _664  and  _665
REMARK  274  A    between atoms: _675  and  _677
REMARK  275  A    between atoms: _677  and  _678
REMARK  276  A    between atoms: _677  and  _680
REMARK  277  A    between atoms: _680  and  _681
REMARK  278  A    between atoms: _684  and  _686
REMARK  279  A    between atoms: _686  and  _687
REMARK  280  A    between atoms: _686  and  _689
REMARK  281  A    between atoms: _689  and  _690
REMARK  282  A    between atoms: _695  and  _696
REMARK                            x       y       z     vdW  Elec       q    Type
REMARK                         _______ _______ _______ _____ _____    ______ ____
ROOT
ATOM      1  O   HOH     1      49.248  68.996 -11.991  0.00  0.00    +0.000 OA
ENDROOT
TORSDOF 0
REMARK  Name = ../refined-set-2016/1g7q/1g7q_pocket.pdb
REMARK  282 active torsions:
REMARK  status: ('A' for Active; 'I' for Inactive)
REMARK    1  A    between atoms: _1  and  _3
REMARK    2  A    between atoms: _3  and  _4
REMARK    3  A    between atoms: _3  and  _6
REMARK    4  A    between atoms: _6  and  _7
REMARK    5  A    between atoms: _10  and  _12
REMARK    6  A    between atoms: _12  and  _13
REMARK    7  A    between atoms: _12  and  _15
REMARK    8  A    between atoms: _15  and  _16
REMARK    9  A    between atoms: _16  and  _17
REMARK   10  A    between atoms: _17  and  _18
REMARK   11  A    between atoms: _27  and  _29
REMARK   12  A    between atoms: _29  and  _30
REMARK   13  A    between atoms: _29  and  _32
REMARK   14  A    between atoms: _32  and  _33
REMARK   15  A    between atoms: _38  and  _39
REMARK   16  A    between atoms: _41  and  _43
REMARK   17  A    between atoms: _43  and  _44
REMARK   18  A    between atoms: _43  and  _46
REMARK   19  A    between atoms: _46  and  _47
REMARK   20  A    between atoms: _53  and  _55
REMARK   21  A    between atoms: _55  and  _56
REMARK   22  A    between atoms: _55  and  _58
REMARK   23  A    between atoms: _61  and  _63
REMARK   24  A    between atoms: _63  and  _64
REMARK   25  A    between atoms: _63  and  _66
REMARK   26  A    between atoms: _66  and  _67
REMARK   27  A    between atoms: _72  and  _73
REMARK   28  A    between atoms: _75  and  _77
REMARK   29  A    between atoms: _77  and  _78
REMARK   30  A    between atoms: _77  and  _80
REMARK   31  A    between atoms: _80  and  _81
REMARK   32  A    between atoms: _81  and  _82
REMARK   33  A    between atoms: _85  and  _87
REMARK   34  A    between atoms: _87  and  _88
REMARK   35  A    between atoms: _87  and  _90
REMARK   36  A    between atoms: _93  and  _95
REMARK   37  A    between atoms: _95  and  _96
REMARK   38  A    between atoms: _98  and  _100
REMARK   39  A    between atoms: _100  and  _101
REMARK   40  A    between atoms: _100  and  _103
REMARK   41  A    between atoms: _106  and  _108
REMARK   42  A    between atoms: _108  and  _109
REMARK   43  A    between atoms: _108  and  _111
REMARK   44  A    between atoms: _111  and  _112
REMARK   45  A    between atoms: _118  and  _120
REMARK   46  A    between atoms: _120  and  _121
REMARK   47  A    between atoms: _120  and  _123
REMARK   48  A    between atoms: _126  and  _128
REMARK   49  A    between atoms: _128  and  _129
REMARK   50  A    between atoms: _128  and  _131
REMARK   51  A    between atoms: _131  and  _132
REMARK   52  A    between atoms: _137  and  _138
REMARK   53  A    between atoms: _140  and  _142
REMARK   54  A    between atoms: _142  and  _143
REMARK   55  A    between atoms: _142  and  _145
REMARK   56  A    between atoms: _145  and  _146
REMARK   57  A    between atoms: _146  and  _147
REMARK   58  A    between atoms: _149  and  _151
REMARK   59  A    between atoms: _151  and  _152
REMARK   60  A    between atoms: _151  and  _154
REMARK   61  A    between atoms: _154  and  _155
REMARK   62  A    between atoms: _160  and  _161
REMARK   63  A    between atoms: _163  and  _165
REMARK   64  A    between atoms: _165  and  _166
REMARK   65  A    between atoms: _165  and  _168
REMARK   66  A    between atoms: _168  and  _169
REMARK   67  A    between atoms: _169  and  _170
REMARK   68  A    between atoms: _170  and  _171
REMARK   69  A    between atoms: _180  and  _182
REMARK   70  A    between atoms: _182  and  _183
REMARK   71  A    between atoms: _182  and  _185
REMARK   72  A    between atoms: _185  and  _186
REMARK   73  A    between atoms: _186  and  _187
REMARK   74  A    between atoms: _190  and  _192
REMARK   75  A    between atoms: _192  and  _193
REMARK   76  A    between atoms: _192  and  _195
REMARK   77  A    between atoms: _195  and  _196
REMARK   78  A    between atoms: _196  and  _197
REMARK   79  A    between atoms: _202  and  _204
REMARK   80  A    between atoms: _204  and  _205
REMARK   81  A    between atoms: _204  and  _207
REMARK   82  A    between atoms: _207  and  _208
REMARK   83  A    between atoms: _208  and  _209
REMARK   84  A    between atoms: _209  and  _210
REMARK   85  A    between atoms: _210  and  _211
REMARK   86  A    between atoms: _215  and  _217
REMARK   87  A    between atoms: _217  and  _218
REMARK   88  A    between atoms: _221  and  _223
REMARK   89  A    between atoms: _223  and  _224
REMARK   90  A    between atoms: _226  and  _228
REMARK   91  A    between atoms: _228  and  _229
REMARK   92  A    between atoms: _228  and  _231
REMARK   93  A    between atoms: _231  and  _232
REMARK   94  A    between atoms: _237  and  _239
REMARK   95  A    between atoms: _239  and  _240
REMARK   96  A    between atoms: _239  and  _242
REMARK   97  A    between atoms: _242  and  _243
REMARK   98  A    between atoms: _243  and  _244
REMARK   99  A    between atoms: _247  and  _249
REMARK  100  A    between atoms: _249  and  _250
REMARK  101  A    between atoms: _249  and  _252
REMARK  102  A    between atoms: _252  and  _253
REMARK  103  A    between atoms: _253  and  _254
REMARK  104  A    between atoms: _259  and  _261
REMARK  105  A    between atoms: _261  and  _262
REMARK  106  A    between atoms: _261  and  _264
REMARK  107  A    between atoms: _264  and  _265
REMARK  108  A    between atoms: _267  and  _269
REMARK  109  A    between atoms: _269  and  _270
REMARK  110  A    between atoms: _269  and  _272
REMARK  111  A    between atoms: _272  and  _273
REMARK  112  A    between atoms: _279  and  _281
REMARK  113  A    between atoms: _281  and  _282
REMARK  114  A    between atoms: _281  and  _284
REMARK  115  A    between atoms: _284  and  _285
REMARK  116  A    between atoms: _285  and  _286
REMARK  117  A    between atoms: _286  and  _287
REMARK  118  A    between atoms: _296  and  _298
REMARK  119  A    between atoms: _298  and  _299
REMARK  120  A    between atoms: _298  and  _301
REMARK  121  A    between atoms: _304  and  _306
REMARK  122  A    between atoms: _306  and  _307
REMARK  123  A    between atoms: _306  and  _309
REMARK  124  A    between atoms: _309  and  _310
REMARK  125  A    between atoms: _313  and  _315
REMARK  126  A    between atoms: _315  and  _316
REMARK  127  A    between atoms: _315  and  _318
REMARK  128  A    between atoms: _318  and  _319
REMARK  129  A    between atoms: _322  and  _324
REMARK  130  A    between atoms: _324  and  _325
REMARK  131  A    between atoms: _324  and  _327
REMARK  132  A    between atoms: _327  and  _328
REMARK  133  A    between atoms: _331  and  _333
REMARK  134  A    between atoms: _333  and  _334
REMARK  135  A    between atoms: _333  and  _336
REMARK  136  A    between atoms: _336  and  _337
REMARK  137  A    between atoms: _340  and  _342
REMARK  138  A    between atoms: _342  and  _343
REMARK  139  A    between atoms: _342  and  _345
REMARK  140  A    between atoms: _345  and  _346
REMARK  141  A    between atoms: _351  and  _352
REMARK  142  A    between atoms: _354  and  _356
REMARK  143  A    between atoms: _356  and  _357
REMARK  144  A    between atoms: _356  and  _359
REMARK  145  A    between atoms: _359  and  _360
REMARK  146  A    between atoms: _363  and  _365
REMARK  147  A    between atoms: _365  and  _366
REMARK  148  A    between atoms: _365  and  _368
REMARK  149  A    between atoms: _371  and  _373
REMARK  150  A    between atoms: _373  and  _374
REMARK  151  A    between atoms: _373  and  _376
REMARK  152  A    between atoms: _376  and  _377
REMARK  153  A    between atoms: _380  and  _382
REMARK  154  A    between atoms: _382  and  _383
REMARK  155  A    between atoms: _382  and  _385
REMARK  156  A    between atoms: _385  and  _386
REMARK  157  A    between atoms: _388  and  _390
REMARK  158  A    between atoms: _390  and  _391
REMARK  159  A    between atoms: _393  and  _395
REMARK  160  A    between atoms: _395  and  _396
REMARK  161  A    between atoms: _395  and  _398
REMARK  162  A    between atoms: _398  and  _399
REMARK  163  A    between atoms: _399  and  _640
REMARK  164  A    between atoms: _400  and  _402
REMARK  165  A    between atoms: _402  and  _403
REMARK  166  A    between atoms: _402  and  _405
REMARK  167  A    between atoms: _405  and  _406
REMARK  168  A    between atoms: _411  and  _412
REMARK  169  A    between atoms: _414  and  _416
REMARK  170  A    between atoms: _416  and  _417
REMARK  171  A    between atoms: _416  and  _419
REMARK  172  A    between atoms: _419  and  _420
REMARK  173  A    between atoms: _420  and  _421
REMARK  174  A    between atoms: _426  and  _428
REMARK  175  A    between atoms: _428  and  _429
REMARK  176  A    between atoms: _428  and  _431
REMARK  177  A    between atoms: _431  and  _432
REMARK  178  A    between atoms: _437  and  _438
REMARK  179  A    between atoms: _440  and  _442
REMARK  180  A    between atoms: _442  and  _443
REMARK  181  A    between atoms: _442  and  _445
REMARK  182  A    between atoms: _445  and  _446
REMARK  183  A    between atoms: _451  and  _452
REMARK  184  A    between atoms: _454  and  _456
REMARK  185  A    between atoms: _456  and  _457
REMARK  186  A    between atoms: _456  and  _459
REMARK  187  A    between atoms: _459  and  _460
REMARK  188  A    between atoms: _463  and  _465
REMARK  189  A    between atoms: _465  and  _466
REMARK  190  A    between atoms: _469  and  _471
REMARK  191  A    between atoms: _471  and  _472
REMARK  192  A    between atoms: _475  and  _477
REMARK  193  A    between atoms: _477  and  _478
REMARK  194  A    between atoms: _477  and  _480
REMARK  195  A    between atoms: _480  and  _481
REMARK  196  A    between atoms: _484  and  _486
REMARK  197  A    between atoms: _486  and  _487
REMARK  198  A    between atoms: _486  and  _489
REMARK  199  A    between atoms: _489  and  _490
REMARK  200  A    between atoms: _493  and  _495
REMARK  201  A    between atoms: _495  and  _496
REMARK  202  A    between atoms: _495  and  _498
REMARK  203  A    between atoms: _498  and  _499
REMARK  204  A    between atoms: _502  and  _504
REMARK  205  A    between atoms: _504  and  _505
REMARK  206  A    between atoms: _504  and  _507
REMARK  207  A    between atoms: _507  and  _508
REMARK  208  A    between atoms: _508  and  _509
REMARK  209  A    between atoms: _509  and  _510
REMARK  210  A    between atoms: _510  and  _511
REMARK  211  A    between atoms: _515  and  _517
REMARK  212  A    between atoms: _517  and  _518
REMARK  213  A    between atoms: _517  and  _520
REMARK  214  A    between atoms: _520  and  _521
REMARK  215  A    between atoms: _526  and  _528
REMARK  216  A    between atoms: _528  and  _529
REMARK  217  A    between atoms: _528  and  _531
REMARK  218  A    between atoms: _531  and  _532
REMARK  219  A    between atoms: _532  and  _533
REMARK  220  A    between atoms: _533  and  _534
REMARK  221  A    between atoms: _534  and  _535
REMARK  222  A    between atoms: _539  and  _541
REMARK  223  A    between atoms: _541  and  _542
REMARK  224  A    between atoms: _541  and  _544
REMARK  225  A    between atoms: _544  and  _545
REMARK  226  A    between atoms: _555  and  _557
REMARK  227  A    between atoms: _557  and  _558
REMARK  228  A    between atoms: _561  and  _563
REMARK  229  A    between atoms: _563  and  _564
REMARK  230  A    between atoms: _566  and  _568
REMARK  231  A    between atoms: _568  and  _569
REMARK  232  A    between atoms: _568  and  _571
REMARK  233  A    between atoms: _571  and  _572
REMARK  234  A    between atoms: _572  and  _573
REMARK  235  A    between atoms: _576  and  _578
REMARK  236  A    between atoms: _578  and  _579
REMARK  237  A    between atoms: _578  and  _581
REMARK  238  A    between atoms: _581  and  _582
REMARK  239  A    between atoms: _582  and  _583
REMARK  240  A    between atoms: _583  and  _584
REMARK  241  A    between atoms: _593  and  _595
REMARK  242  A    between atoms: _595  and  _596
REMARK  243  A    between atoms: _595  and  _598
REMARK  244  A    between atoms: _598  and  _599
REMARK  245  A    between atoms: _602  and  _604
REMARK  246  A    between atoms: _604  and  _605
REMARK  247  A    between atoms: _604  and  _607
REMARK  248  A    between atoms: _607  and  _608
REMARK  249  A    between atoms: _613  and  _614
REMARK  250  A    between atoms: _616  and  _618
REMARK  251  A    between atoms: _618  and  _619
REMARK  252  A    between atoms: _618  and  _621
REMARK  253  A    between atoms: _621  and  _622
REMARK  254  A    between atoms: _625  and  _627
REMARK  255  A    between atoms: _627  and  _628
REMARK  256  A    between atoms: _627  and  _630
REMARK  257  A    between atoms: _630  and  _631
REMARK  258  A    between atoms: _634  and  _636
REMARK  259  A    between atoms: _636  and  _637
REMARK  260  A    between atoms: _636  and  _639
REMARK  261  A    between atoms: _639  and  _640
REMARK  262  A    between atoms: _641  and  _643
REMARK  263  A    between atoms: _643  and  _644
REMARK  264  A    between atoms: _643  and  _646
REMARK  265  A    between atoms: _649  and  _651
REMARK  266  A    between atoms: _651  and  _652
REMARK  267  A    between atoms: _651  and  _654
REMARK  268  A    between atoms: _654  and  _655
REMARK  269  A    between atoms: _655  and  _656
REMARK  270  A    between atoms: _659  and  _661
REMARK  271  A    between atoms: _661  and  _662
REMARK  272  A    between atoms: _661  and  _664
REMARK  273  A    between atoms: _664  and  _665
REMARK  274  A    between atoms: _675  and  _677
REMARK  275  A    between atoms: _677  and  _678
REMARK  276  A    between atoms: _677  and  _680
REMARK  277  A    between atoms: _680  and  _681
REMARK  278  A    between atoms: _684  and  _686
REMARK  279  A    between atoms: _686  and  _687
REMARK  280  A    between atoms: _686  and  _689
REMARK  281  A    between atoms: _689  and  _690
REMARK  282  A    between atoms: _695  and  _696
REMARK                            x       y       z     vdW  Elec       q    Type
REMARK                         _______ _______ _______ _____ _____    ______ ____
ROOT
ATOM      1  O   HOH     1      37.298  63.704  -4.207  0.00  0.00    +0.000 OA
ENDROOT
TORSDOF 0
REMARK  Name = ../refined-set-2016/1g7q/1g7q_pocket.pdb
REMARK  282 active torsions:
REMARK  status: ('A' for Active; 'I' for Inactive)
REMARK    1  A    between atoms: _1  and  _3
REMARK    2  A    between atoms: _3  and  _4
REMARK    3  A    between atoms: _3  and  _6
REMARK    4  A    between atoms: _6  and  _7
REMARK    5  A    between atoms: _10  and  _12
REMARK    6  A    between atoms: _12  and  _13
REMARK    7  A    between atoms: _12  and  _15
REMARK    8  A    between atoms: _15  and  _16
REMARK    9  A    between atoms: _16  and  _17
REMARK   10  A    between atoms: _17  and  _18
REMARK   11  A    between atoms: _27  and  _29
REMARK   12  A    between atoms: _29  and  _30
REMARK   13  A    between atoms: _29  and  _32
REMARK   14  A    between atoms: _32  and  _33
REMARK   15  A    between atoms: _38  and  _39
REMARK   16  A    between atoms: _41  and  _43
REMARK   17  A    between atoms: _43  and  _44
REMARK   18  A    between atoms: _43  and  _46
REMARK   19  A    between atoms: _46  and  _47
REMARK   20  A    between atoms: _53  and  _55
REMARK   21  A    between atoms: _55  and  _56
REMARK   22  A    between atoms: _55  and  _58
REMARK   23  A    between atoms: _61  and  _63
REMARK   24  A    between atoms: _63  and  _64
REMARK   25  A    between atoms: _63  and  _66
REMARK   26  A    between atoms: _66  and  _67
REMARK   27  A    between atoms: _72  and  _73
REMARK   28  A    between atoms: _75  and  _77
REMARK   29  A    between atoms: _77  and  _78
REMARK   30  A    between atoms: _77  and  _80
REMARK   31  A    between atoms: _80  and  _81
REMARK   32  A    between atoms: _81  and  _82
REMARK   33  A    between atoms: _85  and  _87
REMARK   34  A    between atoms: _87  and  _88
REMARK   35  A    between atoms: _87  and  _90
REMARK   36  A    between atoms: _93  and  _95
REMARK   37  A    between atoms: _95  and  _96
REMARK   38  A    between atoms: _98  and  _100
REMARK   39  A    between atoms: _100  and  _101
REMARK   40  A    between atoms: _100  and  _103
REMARK   41  A    between atoms: _106  and  _108
REMARK   42  A    between atoms: _108  and  _109
REMARK   43  A    between atoms: _108  and  _111
REMARK   44  A    between atoms: _111  and  _112
REMARK   45  A    between atoms: _118  and  _120
REMARK   46  A    between atoms: _120  and  _121
REMARK   47  A    between atoms: _120  and  _123
REMARK   48  A    between atoms: _126  and  _128
REMARK   49  A    between atoms: _128  and  _129
REMARK   50  A    between atoms: _128  and  _131
REMARK   51  A    between atoms: _131  and  _132
REMARK   52  A    between atoms: _137  and  _138
REMARK   53  A    between atoms: _140  and  _142
REMARK   54  A    between atoms: _142  and  _143
REMARK   55  A    between atoms: _142  and  _145
REMARK   56  A    between atoms: _145  and  _146
REMARK   57  A    between atoms: _146  and  _147
REMARK   58  A    between atoms: _149  and  _151
REMARK   59  A    between atoms: _151  and  _152
REMARK   60  A    between atoms: _151  and  _154
REMARK   61  A    between atoms: _154  and  _155
REMARK   62  A    between atoms: _160  and  _161
REMARK   63  A    between atoms: _163  and  _165
REMARK   64  A    between atoms: _165  and  _166
REMARK   65  A    between atoms: _165  and  _168
REMARK   66  A    between atoms: _168  and  _169
REMARK   67  A    between atoms: _169  and  _170
REMARK   68  A    between atoms: _170  and  _171
REMARK   69  A    between atoms: _180  and  _182
REMARK   70  A    between atoms: _182  and  _183
REMARK   71  A    between atoms: _182  and  _185
REMARK   72  A    between atoms: _185  and  _186
REMARK   73  A    between atoms: _186  and  _187
REMARK   74  A    between atoms: _190  and  _192
REMARK   75  A    between atoms: _192  and  _193
REMARK   76  A    between atoms: _192  and  _195
REMARK   77  A    between atoms: _195  and  _196
REMARK   78  A    between atoms: _196  and  _197
REMARK   79  A    between atoms: _202  and  _204
REMARK   80  A    between atoms: _204  and  _205
REMARK   81  A    between atoms: _204  and  _207
REMARK   82  A    between atoms: _207  and  _208
REMARK   83  A    between atoms: _208  and  _209
REMARK   84  A    between atoms: _209  and  _210
REMARK   85  A    between atoms: _210  and  _211
REMARK   86  A    between atoms: _215  and  _217
REMARK   87  A    between atoms: _217  and  _218
REMARK   88  A    between atoms: _221  and  _223
REMARK   89  A    between atoms: _223  and  _224
REMARK   90  A    between atoms: _226  and  _228
REMARK   91  A    between atoms: _228  and  _229
REMARK   92  A    between atoms: _228  and  _231
REMARK   93  A    between atoms: _231  and  _232
REMARK   94  A    between atoms: _237  and  _239
REMARK   95  A    between atoms: _239  and  _240
REMARK   96  A    between atoms: _239  and  _242
REMARK   97  A    between atoms: _242  and  _243
REMARK   98  A    between atoms: _243  and  _244
REMARK   99  A    between atoms: _247  and  _249
REMARK  100  A    between atoms: _249  and  _250
REMARK  101  A    between atoms: _249  and  _252
REMARK  102  A    between atoms: _252  and  _253
REMARK  103  A    between atoms: _253  and  _254
REMARK  104  A    between atoms: _259  and  _261
REMARK  105  A    between atoms: _261  and  _262
REMARK  106  A    between atoms: _261  and  _264
REMARK  107  A    between atoms: _264  and  _265
REMARK  108  A    between atoms: _267  and  _269
REMARK  109  A    between atoms: _269  and  _270
REMARK  110  A    between atoms: _269  and  _272
REMARK  111  A    between atoms: _272  and  _273
REMARK  112  A    between atoms: _279  and  _281
REMARK  113  A    between atoms: _281  and  _282
REMARK  114  A    between atoms: _281  and  _284
REMARK  115  A    between atoms: _284  and  _285
REMARK  116  A    between atoms: _285  and  _286
REMARK  117  A    between atoms: _286  and  _287
REMARK  118  A    between atoms: _296  and  _298
REMARK  119  A    between atoms: _298  and  _299
REMARK  120  A    between atoms: _298  and  _301
REMARK  121  A    between atoms: _304  and  _306
REMARK  122  A    between atoms: _306  and  _307
REMARK  123  A    between atoms: _306  and  _309
REMARK  124  A    between atoms: _309  and  _310
REMARK  125  A    between atoms: _313  and  _315
REMARK  126  A    between atoms: _315  and  _316
REMARK  127  A    between atoms: _315  and  _318
REMARK  128  A    between atoms: _318  and  _319
REMARK  129  A    between atoms: _322  and  _324
REMARK  130  A    between atoms: _324  and  _325
REMARK  131  A    between atoms: _324  and  _327
REMARK  132  A    between atoms: _327  and  _328
REMARK  133  A    between atoms: _331  and  _333
REMARK  134  A    between atoms: _333  and  _334
REMARK  135  A    between atoms: _333  and  _336
REMARK  136  A    between atoms: _336  and  _337
REMARK  137  A    between atoms: _340  and  _342
REMARK  138  A    between atoms: _342  and  _343
REMARK  139  A    between atoms: _342  and  _345
REMARK  140  A    between atoms: _345  and  _346
REMARK  141  A    between atoms: _351  and  _352
REMARK  142  A    between atoms: _354  and  _356
REMARK  143  A    between atoms: _356  and  _357
REMARK  144  A    between atoms: _356  and  _359
REMARK  145  A    between atoms: _359  and  _360
REMARK  146  A    between atoms: _363  and  _365
REMARK  147  A    between atoms: _365  and  _366
REMARK  148  A    between atoms: _365  and  _368
REMARK  149  A    between atoms: _371  and  _373
REMARK  150  A    between atoms: _373  and  _374
REMARK  151  A    between atoms: _373  and  _376
REMARK  152  A    between atoms: _376  and  _377
REMARK  153  A    between atoms: _380  and  _382
REMARK  154  A    between atoms: _382  and  _383
REMARK  155  A    between atoms: _382  and  _385
REMARK  156  A    between atoms: _385  and  _386
REMARK  157  A    between atoms: _388  and  _390
REMARK  158  A    between atoms: _390  and  _391
REMARK  159  A    between atoms: _393  and  _395
REMARK  160  A    between atoms: _395  and  _396
REMARK  161  A    between atoms: _395  and  _398
REMARK  162  A    between atoms: _398  and  _399
REMARK  163  A    between atoms: _399  and  _640
REMARK  164  A    between atoms: _400  and  _402
REMARK  165  A    between atoms: _402  and  _403
REMARK  166  A    between atoms: _402  and  _405
REMARK  167  A    between atoms: _405  and  _406
REMARK  168  A    between atoms: _411  and  _412
REMARK  169  A    between atoms: _414  and  _416
REMARK  170  A    between atoms: _416  and  _417
REMARK  171  A    between atoms: _416  and  _419
REMARK  172  A    between atoms: _419  and  _420
REMARK  173  A    between atoms: _420  and  _421
REMARK  174  A    between atoms: _426  and  _428
REMARK  175  A    between atoms: _428  and  _429
REMARK  176  A    between atoms: _428  and  _431
REMARK  177  A    between atoms: _431  and  _432
REMARK  178  A    between atoms: _437  and  _438
REMARK  179  A    between atoms: _440  and  _442
REMARK  180  A    between atoms: _442  and  _443
REMARK  181  A    between atoms: _442  and  _445
REMARK  182  A    between atoms: _445  and  _446
REMARK  183  A    between atoms: _451  and  _452
REMARK  184  A    between atoms: _454  and  _456
REMARK  185  A    between atoms: _456  and  _457
REMARK  186  A    between atoms: _456  and  _459
REMARK  187  A    between atoms: _459  and  _460
REMARK  188  A    between atoms: _463  and  _465
REMARK  189  A    between atoms: _465  and  _466
REMARK  190  A    between atoms: _469  and  _471
REMARK  191  A    between atoms: _471  and  _472
REMARK  192  A    between atoms: _475  and  _477
REMARK  193  A    between atoms: _477  and  _478
REMARK  194  A    between atoms: _477  and  _480
REMARK  195  A    between atoms: _480  and  _481
REMARK  196  A    between atoms: _484  and  _486
REMARK  197  A    between atoms: _486  and  _487
REMARK  198  A    between atoms: _486  and  _489
REMARK  199  A    between atoms: _489  and  _490
REMARK  200  A    between atoms: _493  and  _495
REMARK  201  A    between atoms: _495  and  _496
REMARK  202  A    between atoms: _495  and  _498
REMARK  203  A    between atoms: _498  and  _499
REMARK  204  A    between atoms: _502  and  _504
REMARK  205  A    between atoms: _504  and  _505
REMARK  206  A    between atoms: _504  and  _507
REMARK  207  A    between atoms: _507  and  _508
REMARK  208  A    between atoms: _508  and  _509
REMARK  209  A    between atoms: _509  and  _510
REMARK  210  A    between atoms: _510  and  _511
REMARK  211  A    between atoms: _515  and  _517
REMARK  212  A    between atoms: _517  and  _518
REMARK  213  A    between atoms: _517  and  _520
REMARK  214  A    between atoms: _520  and  _521
REMARK  215  A    between atoms: _526  and  _528
REMARK  216  A    between atoms: _528  and  _529
REMARK  217  A    between atoms: _528  and  _531
REMARK  218  A    between atoms: _531  and  _532
REMARK  219  A    between atoms: _532  and  _533
REMARK  220  A    between atoms: _533  and  _534
REMARK  221  A    between atoms: _534  and  _535
REMARK  222  A    between atoms: _539  and  _541
REMARK  223  A    between atoms: _541  and  _542
REMARK  224  A    between atoms: _541  and  _544
REMARK  225  A    between atoms: _544  and  _545
REMARK  226  A    between atoms: _555  and  _557
REMARK  227  A    between atoms: _557  and  _558
REMARK  228  A    between atoms: _561  and  _563
REMARK  229  A    between atoms: _563  and  _564
REMARK  230  A    between atoms: _566  and  _568
REMARK  231  A    between atoms: _568  and  _569
REMARK  232  A    between atoms: _568  and  _571
REMARK  233  A    between atoms: _571  and  _572
REMARK  234  A    between atoms: _572  and  _573
REMARK  235  A    between atoms: _576  and  _578
REMARK  236  A    between atoms: _578  and  _579
REMARK  237  A    between atoms: _578  and  _581
REMARK  238  A    between atoms: _581  and  _582
REMARK  239  A    between atoms: _582  and  _583
REMARK  240  A    between atoms: _583  and  _584
REMARK  241  A    between atoms: _593  and  _595
REMARK  242  A    between atoms: _595  and  _596
REMARK  243  A    between atoms: _595  and  _598
REMARK  244  A    between atoms: _598  and  _599
REMARK  245  A    between atoms: _602  and  _604
REMARK  246  A    between atoms: _604  and  _605
REMARK  247  A    between atoms: _604  and  _607
REMARK  248  A    between atoms: _607  and  _608
REMARK  249  A    between atoms: _613  and  _614
REMARK  250  A    between atoms: _616  and  _618
REMARK  251  A    between atoms: _618  and  _619
REMARK  252  A    between atoms: _618  and  _621
REMARK  253  A    between atoms: _621  and  _622
REMARK  254  A    between atoms: _625  and  _627
REMARK  255  A    between atoms: _627  and  _628
REMARK  256  A    between atoms: _627  and  _630
REMARK  257  A    between atoms: _630  and  _631
REMARK  258  A    between atoms: _634  and  _636
REMARK  259  A    between atoms: _636  and  _637
REMARK  260  A    between atoms: _636  and  _639
REMARK  261  A    between atoms: _639  and  _640
REMARK  262  A    between atoms: _641  and  _643
REMARK  263  A    between atoms: _643  and  _644
REMARK  264  A    between atoms: _643  and  _646
REMARK  265  A    between atoms: _649  and  _651
REMARK  266  A    between atoms: _651  and  _652
REMARK  267  A    between atoms: _651  and  _654
REMARK  268  A    between atoms: _654  and  _655
REMARK  269  A    between atoms: _655  and  _656
REMARK  270  A    between atoms: _659  and  _661
REMARK  271  A    between atoms: _661  and  _662
REMARK  272  A    between atoms: _661  and  _664
REMARK  273  A    between atoms: _664  and  _665
REMARK  274  A    between atoms: _675  and  _677
REMARK  275  A    between atoms: _677  and  _678
REMARK  276  A    between atoms: _677  and  _680
REMARK  277  A    between atoms: _680  and  _681
REMARK  278  A    between atoms: _684  and  _686
REMARK  279  A    between atoms: _686  and  _687
REMARK  280  A    between atoms: _686  and  _689
REMARK  281  A    between atoms: _689  and  _690
REMARK  282  A    between atoms: _695  and  _696
REMARK                            x       y       z     vdW  Elec       q    Type
REMARK                         _______ _______ _______ _____ _____    ______ ____
ROOT
ATOM      1  O   HOH     1      45.195  52.773  -3.724  0.00  0.00    +0.000 OA
ENDROOT
TORSDOF 0
REMARK  Name = ../refined-set-2016/1g7q/1g7q_pocket.pdb
REMARK  282 active torsions:
REMARK  status: ('A' for Active; 'I' for Inactive)
REMARK    1  A    between atoms: _1  and  _3
REMARK    2  A    between atoms: _3  and  _4
REMARK    3  A    between atoms: _3  and  _6
REMARK    4  A    between atoms: _6  and  _7
REMARK    5  A    between atoms: _10  and  _12
REMARK    6  A    between atoms: _12  and  _13
REMARK    7  A    between atoms: _12  and  _15
REMARK    8  A    between atoms: _15  and  _16
REMARK    9  A    between atoms: _16  and  _17
REMARK   10  A    between atoms: _17  and  _18
REMARK   11  A    between atoms: _27  and  _29
REMARK   12  A    between atoms: _29  and  _30
REMARK   13  A    between atoms: _29  and  _32
REMARK   14  A    between atoms: _32  and  _33
REMARK   15  A    between atoms: _38  and  _39
REMARK   16  A    between atoms: _41  and  _43
REMARK   17  A    between atoms: _43  and  _44
REMARK   18  A    between atoms: _43  and  _46
REMARK   19  A    between atoms: _46  and  _47
REMARK   20  A    between atoms: _53  and  _55
REMARK   21  A    between atoms: _55  and  _56
REMARK   22  A    between atoms: _55  and  _58
REMARK   23  A    between atoms: _61  and  _63
REMARK   24  A    between atoms: _63  and  _64
REMARK   25  A    between atoms: _63  and  _66
REMARK   26  A    between atoms: _66  and  _67
REMARK   27  A    between atoms: _72  and  _73
REMARK   28  A    between atoms: _75  and  _77
REMARK   29  A    between atoms: _77  and  _78
REMARK   30  A    between atoms: _77  and  _80
REMARK   31  A    between atoms: _80  and  _81
REMARK   32  A    between atoms: _81  and  _82
REMARK   33  A    between atoms: _85  and  _87
REMARK   34  A    between atoms: _87  and  _88
REMARK   35  A    between atoms: _87  and  _90
REMARK   36  A    between atoms: _93  and  _95
REMARK   37  A    between atoms: _95  and  _96
REMARK   38  A    between atoms: _98  and  _100
REMARK   39  A    between atoms: _100  and  _101
REMARK   40  A    between atoms: _100  and  _103
REMARK   41  A    between atoms: _106  and  _108
REMARK   42  A    between atoms: _108  and  _109
REMARK   43  A    between atoms: _108  and  _111
REMARK   44  A    between atoms: _111  and  _112
REMARK   45  A    between atoms: _118  and  _120
REMARK   46  A    between atoms: _120  and  _121
REMARK   47  A    between atoms: _120  and  _123
REMARK   48  A    between atoms: _126  and  _128
REMARK   49  A    between atoms: _128  and  _129
REMARK   50  A    between atoms: _128  and  _131
REMARK   51  A    between atoms: _131  and  _132
REMARK   52  A    between atoms: _137  and  _138
REMARK   53  A    between atoms: _140  and  _142
REMARK   54  A    between atoms: _142  and  _143
REMARK   55  A    between atoms: _142  and  _145
REMARK   56  A    between atoms: _145  and  _146
REMARK   57  A    between atoms: _146  and  _147
REMARK   58  A    between atoms: _149  and  _151
REMARK   59  A    between atoms: _151  and  _152
REMARK   60  A    between atoms: _151  and  _154
REMARK   61  A    between atoms: _154  and  _155
REMARK   62  A    between atoms: _160  and  _161
REMARK   63  A    between atoms: _163  and  _165
REMARK   64  A    between atoms: _165  and  _166
REMARK   65  A    between atoms: _165  and  _168
REMARK   66  A    between atoms: _168  and  _169
REMARK   67  A    between atoms: _169  and  _170
REMARK   68  A    between atoms: _170  and  _171
REMARK   69  A    between atoms: _180  and  _182
REMARK   70  A    between atoms: _182  and  _183
REMARK   71  A    between atoms: _182  and  _185
REMARK   72  A    between atoms: _185  and  _186
REMARK   73  A    between atoms: _186  and  _187
REMARK   74  A    between atoms: _190  and  _192
REMARK   75  A    between atoms: _192  and  _193
REMARK   76  A    between atoms: _192  and  _195
REMARK   77  A    between atoms: _195  and  _196
REMARK   78  A    between atoms: _196  and  _197
REMARK   79  A    between atoms: _202  and  _204
REMARK   80  A    between atoms: _204  and  _205
REMARK   81  A    between atoms: _204  and  _207
REMARK   82  A    between atoms: _207  and  _208
REMARK   83  A    between atoms: _208  and  _209
REMARK   84  A    between atoms: _209  and  _210
REMARK   85  A    between atoms: _210  and  _211
REMARK   86  A    between atoms: _215  and  _217
REMARK   87  A    between atoms: _217  and  _218
REMARK   88  A    between atoms: _221  and  _223
REMARK   89  A    between atoms: _223  and  _224
REMARK   90  A    between atoms: _226  and  _228
REMARK   91  A    between atoms: _228  and  _229
REMARK   92  A    between atoms: _228  and  _231
REMARK   93  A    between atoms: _231  and  _232
REMARK   94  A    between atoms: _237  and  _239
REMARK   95  A    between atoms: _239  and  _240
REMARK   96  A    between atoms: _239  and  _242
REMARK   97  A    between atoms: _242  and  _243
REMARK   98  A    between atoms: _243  and  _244
REMARK   99  A    between atoms: _247  and  _249
REMARK  100  A    between atoms: _249  and  _250
REMARK  101  A    between atoms: _249  and  _252
REMARK  102  A    between atoms: _252  and  _253
REMARK  103  A    between atoms: _253  and  _254
REMARK  104  A    between atoms: _259  and  _261
REMARK  105  A    between atoms: _261  and  _262
REMARK  106  A    between atoms: _261  and  _264
REMARK  107  A    between atoms: _264  and  _265
REMARK  108  A    between atoms: _267  and  _269
REMARK  109  A    between atoms: _269  and  _270
REMARK  110  A    between atoms: _269  and  _272
REMARK  111  A    between atoms: _272  and  _273
REMARK  112  A    between atoms: _279  and  _281
REMARK  113  A    between atoms: _281  and  _282
REMARK  114  A    between atoms: _281  and  _284
REMARK  115  A    between atoms: _284  and  _285
REMARK  116  A    between atoms: _285  and  _286
REMARK  117  A    between atoms: _286  and  _287
REMARK  118  A    between atoms: _296  and  _298
REMARK  119  A    between atoms: _298  and  _299
REMARK  120  A    between atoms: _298  and  _301
REMARK  121  A    between atoms: _304  and  _306
REMARK  122  A    between atoms: _306  and  _307
REMARK  123  A    between atoms: _306  and  _309
REMARK  124  A    between atoms: _309  and  _310
REMARK  125  A    between atoms: _313  and  _315
REMARK  126  A    between atoms: _315  and  _316
REMARK  127  A    between atoms: _315  and  _318
REMARK  128  A    between atoms: _318  and  _319
REMARK  129  A    between atoms: _322  and  _324
REMARK  130  A    between atoms: _324  and  _325
REMARK  131  A    between atoms: _324  and  _327
REMARK  132  A    between atoms: _327  and  _328
REMARK  133  A    between atoms: _331  and  _333
REMARK  134  A    between atoms: _333  and  _334
REMARK  135  A    between atoms: _333  and  _336
REMARK  136  A    between atoms: _336  and  _337
REMARK  137  A    between atoms: _340  and  _342
REMARK  138  A    between atoms: _342  and  _343
REMARK  139  A    between atoms: _342  and  _345
REMARK  140  A    between atoms: _345  and  _346
REMARK  141  A    between atoms: _351  and  _352
REMARK  142  A    between atoms: _354  and  _356
REMARK  143  A    between atoms: _356  and  _357
REMARK  144  A    between atoms: _356  and  _359
REMARK  145  A    between atoms: _359  and  _360
REMARK  146  A    between atoms: _363  and  _365
REMARK  147  A    between atoms: _365  and  _366
REMARK  148  A    between atoms: _365  and  _368
REMARK  149  A    between atoms: _371  and  _373
REMARK  150  A    between atoms: _373  and  _374
REMARK  151  A    between atoms: _373  and  _376
REMARK  152  A    between atoms: _376  and  _377
REMARK  153  A    between atoms: _380  and  _382
REMARK  154  A    between atoms: _382  and  _383
REMARK  155  A    between atoms: _382  and  _385
REMARK  156  A    between atoms: _385  and  _386
REMARK  157  A    between atoms: _388  and  _390
REMARK  158  A    between atoms: _390  and  _391
REMARK  159  A    between atoms: _393  and  _395
REMARK  160  A    between atoms: _395  and  _396
REMARK  161  A    between atoms: _395  and  _398
REMARK  162  A    between atoms: _398  and  _399
REMARK  163  A    between atoms: _399  and  _640
REMARK  164  A    between atoms: _400  and  _402
REMARK  165  A    between atoms: _402  and  _403
REMARK  166  A    between atoms: _402  and  _405
REMARK  167  A    between atoms: _405  and  _406
REMARK  168  A    between atoms: _411  and  _412
REMARK  169  A    between atoms: _414  and  _416
REMARK  170  A    between atoms: _416  and  _417
REMARK  171  A    between atoms: _416  and  _419
REMARK  172  A    between atoms: _419  and  _420
REMARK  173  A    between atoms: _420  and  _421
REMARK  174  A    between atoms: _426  and  _428
REMARK  175  A    between atoms: _428  and  _429
REMARK  176  A    between atoms: _428  and  _431
REMARK  177  A    between atoms: _431  and  _432
REMARK  178  A    between atoms: _437  and  _438
REMARK  179  A    between atoms: _440  and  _442
REMARK  180  A    between atoms: _442  and  _443
REMARK  181  A    between atoms: _442  and  _445
REMARK  182  A    between atoms: _445  and  _446
REMARK  183  A    between atoms: _451  and  _452
REMARK  184  A    between atoms: _454  and  _456
REMARK  185  A    between atoms: _456  and  _457
REMARK  186  A    between atoms: _456  and  _459
REMARK  187  A    between atoms: _459  and  _460
REMARK  188  A    between atoms: _463  and  _465
REMARK  189  A    between atoms: _465  and  _466
REMARK  190  A    between atoms: _469  and  _471
REMARK  191  A    between atoms: _471  and  _472
REMARK  192  A    between atoms: _475  and  _477
REMARK  193  A    between atoms: _477  and  _478
REMARK  194  A    between atoms: _477  and  _480
REMARK  195  A    between atoms: _480  and  _481
REMARK  196  A    between atoms: _484  and  _486
REMARK  197  A    between atoms: _486  and  _487
REMARK  198  A    between atoms: _486  and  _489
REMARK  199  A    between atoms: _489  and  _490
REMARK  200  A    between atoms: _493  and  _495
REMARK  201  A    between atoms: _495  and  _496
REMARK  202  A    between atoms: _495  and  _498
REMARK  203  A    between atoms: _498  and  _499
REMARK  204  A    between atoms: _502  and  _504
REMARK  205  A    between atoms: _504  and  _505
REMARK  206  A    between atoms: _504  and  _507
REMARK  207  A    between atoms: _507  and  _508
REMARK  208  A    between atoms: _508  and  _509
REMARK  209  A    between atoms: _509  and  _510
REMARK  210  A    between atoms: _510  and  _511
REMARK  211  A    between atoms: _515  and  _517
REMARK  212  A    between atoms: _517  and  _518
REMARK  213  A    between atoms: _517  and  _520
REMARK  214  A    between atoms: _520  and  _521
REMARK  215  A    between atoms: _526  and  _528
REMARK  216  A    between atoms: _528  and  _529
REMARK  217  A    between atoms: _528  and  _531
REMARK  218  A    between atoms: _531  and  _532
REMARK  219  A    between atoms: _532  and  _533
REMARK  220  A    between atoms: _533  and  _534
REMARK  221  A    between atoms: _534  and  _535
REMARK  222  A    between atoms: _539  and  _541
REMARK  223  A    between atoms: _541  and  _542
REMARK  224  A    between atoms: _541  and  _544
REMARK  225  A    between atoms: _544  and  _545
REMARK  226  A    between atoms: _555  and  _557
REMARK  227  A    between atoms: _557  and  _558
REMARK  228  A    between atoms: _561  and  _563
REMARK  229  A    between atoms: _563  and  _564
REMARK  230  A    between atoms: _566  and  _568
REMARK  231  A    between atoms: _568  and  _569
REMARK  232  A    between atoms: _568  and  _571
REMARK  233  A    between atoms: _571  and  _572
REMARK  234  A    between atoms: _572  and  _573
REMARK  235  A    between atoms: _576  and  _578
REMARK  236  A    between atoms: _578  and  _579
REMARK  237  A    between atoms: _578  and  _581
REMARK  238  A    between atoms: _581  and  _582
REMARK  239  A    between atoms: _582  and  _583
REMARK  240  A    between atoms: _583  and  _584
REMARK  241  A    between atoms: _593  and  _595
REMARK  242  A    between atoms: _595  and  _596
REMARK  243  A    between atoms: _595  and  _598
REMARK  244  A    between atoms: _598  and  _599
REMARK  245  A    between atoms: _602  and  _604
REMARK  246  A    between atoms: _604  and  _605
REMARK  247  A    between atoms: _604  and  _607
REMARK  248  A    between atoms: _607  and  _608
REMARK  249  A    between atoms: _613  and  _614
REMARK  250  A    between atoms: _616  and  _618
REMARK  251  A    between atoms: _618  and  _619
REMARK  252  A    between atoms: _618  and  _621
REMARK  253  A    between atoms: _621  and  _622
REMARK  254  A    between atoms: _625  and  _627
REMARK  255  A    between atoms: _627  and  _628
REMARK  256  A    between atoms: _627  and  _630
REMARK  257  A    between atoms: _630  and  _631
REMARK  258  A    between atoms: _634  and  _636
REMARK  259  A    between atoms: _636  and  _637
REMARK  260  A    between atoms: _636  and  _639
REMARK  261  A    between atoms: _639  and  _640
REMARK  262  A    between atoms: _641  and  _643
REMARK  263  A    between atoms: _643  and  _644
REMARK  264  A    between atoms: _643  and  _646
REMARK  265  A    between atoms: _649  and  _651
REMARK  266  A    between atoms: _651  and  _652
REMARK  267  A    between atoms: _651  and  _654
REMARK  268  A    between atoms: _654  and  _655
REMARK  269  A    between atoms: _655  and  _656
REMARK  270  A    between atoms: _659  and  _661
REMARK  271  A    between atoms: _661  and  _662
REMARK  272  A    between atoms: _661  and  _664
REMARK  273  A    between atoms: _664  and  _665
REMARK  274  A    between atoms: _675  and  _677
REMARK  275  A    between atoms: _677  and  _678
REMARK  276  A    between atoms: _677  and  _680
REMARK  277  A    between atoms: _680  and  _681
REMARK  278  A    between atoms: _684  and  _686
REMARK  279  A    between atoms: _686  and  _687
REMARK  280  A    between atoms: _686  and  _689
REMARK  281  A    between atoms: _689  and  _690
REMARK  282  A    between atoms: _695  and  _696
REMARK                            x       y       z     vdW  Elec       q    Type
REMARK                         _______ _______ _______ _____ _____    ______ ____
ROOT
ATOM      1  O   HOH     1      38.772  63.764 -12.188  0.00  0.00    +0.000 OA
ENDROOT
TORSDOF 0
REMARK  Name = ../refined-set-2016/1g7q/1g7q_pocket.pdb
REMARK  282 active torsions:
REMARK  status: ('A' for Active; 'I' for Inactive)
REMARK    1  A    between atoms: _1  and  _3
REMARK    2  A    between atoms: _3  and  _4
REMARK    3  A    between atoms: _3  and  _6
REMARK    4  A    between atoms: _6  and  _7
REMARK    5  A    between atoms: _10  and  _12
REMARK    6  A    between atoms: _12  and  _13
REMARK    7  A    between atoms: _12  and  _15
REMARK    8  A    between atoms: _15  and  _16
REMARK    9  A    between atoms: _16  and  _17
REMARK   10  A    between atoms: _17  and  _18
REMARK   11  A    between atoms: _27  and  _29
REMARK   12  A    between atoms: _29  and  _30
REMARK   13  A    between atoms: _29  and  _32
REMARK   14  A    between atoms: _32  and  _33
REMARK   15  A    between atoms: _38  and  _39
REMARK   16  A    between atoms: _41  and  _43
REMARK   17  A    between atoms: _43  and  _44
REMARK   18  A    between atoms: _43  and  _46
REMARK   19  A    between atoms: _46  and  _47
REMARK   20  A    between atoms: _53  and  _55
REMARK   21  A    between atoms: _55  and  _56
REMARK   22  A    between atoms: _55  and  _58
REMARK   23  A    between atoms: _61  and  _63
REMARK   24  A    between atoms: _63  and  _64
REMARK   25  A    between atoms: _63  and  _66
REMARK   26  A    between atoms: _66  and  _67
REMARK   27  A    between atoms: _72  and  _73
REMARK   28  A    between atoms: _75  and  _77
REMARK   29  A    between atoms: _77  and  _78
REMARK   30  A    between atoms: _77  and  _80
REMARK   31  A    between atoms: _80  and  _81
REMARK   32  A    between atoms: _81  and  _82
REMARK   33  A    between atoms: _85  and  _87
REMARK   34  A    between atoms: _87  and  _88
REMARK   35  A    between atoms: _87  and  _90
REMARK   36  A    between atoms: _93  and  _95
REMARK   37  A    between atoms: _95  and  _96
REMARK   38  A    between atoms: _98  and  _100
REMARK   39  A    between atoms: _100  and  _101
REMARK   40  A    between atoms: _100  and  _103
REMARK   41  A    between atoms: _106  and  _108
REMARK   42  A    between atoms: _108  and  _109
REMARK   43  A    between atoms: _108  and  _111
REMARK   44  A    between atoms: _111  and  _112
REMARK   45  A    between atoms: _118  and  _120
REMARK   46  A    between atoms: _120  and  _121
REMARK   47  A    between atoms: _120  and  _123
REMARK   48  A    between atoms: _126  and  _128
REMARK   49  A    between atoms: _128  and  _129
REMARK   50  A    between atoms: _128  and  _131
REMARK   51  A    between atoms: _131  and  _132
REMARK   52  A    between atoms: _137  and  _138
REMARK   53  A    between atoms: _140  and  _142
REMARK   54  A    between atoms: _142  and  _143
REMARK   55  A    between atoms: _142  and  _145
REMARK   56  A    between atoms: _145  and  _146
REMARK   57  A    between atoms: _146  and  _147
REMARK   58  A    between atoms: _149  and  _151
REMARK   59  A    between atoms: _151  and  _152
REMARK   60  A    between atoms: _151  and  _154
REMARK   61  A    between atoms: _154  and  _155
REMARK   62  A    between atoms: _160  and  _161
REMARK   63  A    between atoms: _163  and  _165
REMARK   64  A    between atoms: _165  and  _166
REMARK   65  A    between atoms: _165  and  _168
REMARK   66  A    between atoms: _168  and  _169
REMARK   67  A    between atoms: _169  and  _170
REMARK   68  A    between atoms: _170  and  _171
REMARK   69  A    between atoms: _180  and  _182
REMARK   70  A    between atoms: _182  and  _183
REMARK   71  A    between atoms: _182  and  _185
REMARK   72  A    between atoms: _185  and  _186
REMARK   73  A    between atoms: _186  and  _187
REMARK   74  A    between atoms: _190  and  _192
REMARK   75  A    between atoms: _192  and  _193
REMARK   76  A    between atoms: _192  and  _195
REMARK   77  A    between atoms: _195  and  _196
REMARK   78  A    between atoms: _196  and  _197
REMARK   79  A    between atoms: _202  and  _204
REMARK   80  A    between atoms: _204  and  _205
REMARK   81  A    between atoms: _204  and  _207
REMARK   82  A    between atoms: _207  and  _208
REMARK   83  A    between atoms: _208  and  _209
REMARK   84  A    between atoms: _209  and  _210
REMARK   85  A    between atoms: _210  and  _211
REMARK   86  A    between atoms: _215  and  _217
REMARK   87  A    between atoms: _217  and  _218
REMARK   88  A    between atoms: _221  and  _223
REMARK   89  A    between atoms: _223  and  _224
REMARK   90  A    between atoms: _226  and  _228
REMARK   91  A    between atoms: _228  and  _229
REMARK   92  A    between atoms: _228  and  _231
REMARK   93  A    between atoms: _231  and  _232
REMARK   94  A    between atoms: _237  and  _239
REMARK   95  A    between atoms: _239  and  _240
REMARK   96  A    between atoms: _239  and  _242
REMARK   97  A    between atoms: _242  and  _243
REMARK   98  A    between atoms: _243  and  _244
REMARK   99  A    between atoms: _247  and  _249
REMARK  100  A    between atoms: _249  and  _250
REMARK  101  A    between atoms: _249  and  _252
REMARK  102  A    between atoms: _252  and  _253
REMARK  103  A    between atoms: _253  and  _254
REMARK  104  A    between atoms: _259  and  _261
REMARK  105  A    between atoms: _261  and  _262
REMARK  106  A    between atoms: _261  and  _264
REMARK  107  A    between atoms: _264  and  _265
REMARK  108  A    between atoms: _267  and  _269
REMARK  109  A    between atoms: _269  and  _270
REMARK  110  A    between atoms: _269  and  _272
REMARK  111  A    between atoms: _272  and  _273
REMARK  112  A    between atoms: _279  and  _281
REMARK  113  A    between atoms: _281  and  _282
REMARK  114  A    between atoms: _281  and  _284
REMARK  115  A    between atoms: _284  and  _285
REMARK  116  A    between atoms: _285  and  _286
REMARK  117  A    between atoms: _286  and  _287
REMARK  118  A    between atoms: _296  and  _298
REMARK  119  A    between atoms: _298  and  _299
REMARK  120  A    between atoms: _298  and  _301
REMARK  121  A    between atoms: _304  and  _306
REMARK  122  A    between atoms: _306  and  _307
REMARK  123  A    between atoms: _306  and  _309
REMARK  124  A    between atoms: _309  and  _310
REMARK  125  A    between atoms: _313  and  _315
REMARK  126  A    between atoms: _315  and  _316
REMARK  127  A    between atoms: _315  and  _318
REMARK  128  A    between atoms: _318  and  _319
REMARK  129  A    between atoms: _322  and  _324
REMARK  130  A    between atoms: _324  and  _325
REMARK  131  A    between atoms: _324  and  _327
REMARK  132  A    between atoms: _327  and  _328
REMARK  133  A    between atoms: _331  and  _333
REMARK  134  A    between atoms: _333  and  _334
REMARK  135  A    between atoms: _333  and  _336
REMARK  136  A    between atoms: _336  and  _337
REMARK  137  A    between atoms: _340  and  _342
REMARK  138  A    between atoms: _342  and  _343
REMARK  139  A    between atoms: _342  and  _345
REMARK  140  A    between atoms: _345  and  _346
REMARK  141  A    between atoms: _351  and  _352
REMARK  142  A    between atoms: _354  and  _356
REMARK  143  A    between atoms: _356  and  _357
REMARK  144  A    between atoms: _356  and  _359
REMARK  145  A    between atoms: _359  and  _360
REMARK  146  A    between atoms: _363  and  _365
REMARK  147  A    between atoms: _365  and  _366
REMARK  148  A    between atoms: _365  and  _368
REMARK  149  A    between atoms: _371  and  _373
REMARK  150  A    between atoms: _373  and  _374
REMARK  151  A    between atoms: _373  and  _376
REMARK  152  A    between atoms: _376  and  _377
REMARK  153  A    between atoms: _380  and  _382
REMARK  154  A    between atoms: _382  and  _383
REMARK  155  A    between atoms: _382  and  _385
REMARK  156  A    between atoms: _385  and  _386
REMARK  157  A    between atoms: _388  and  _390
REMARK  158  A    between atoms: _390  and  _391
REMARK  159  A    between atoms: _393  and  _395
REMARK  160  A    between atoms: _395  and  _396
REMARK  161  A    between atoms: _395  and  _398
REMARK  162  A    between atoms: _398  and  _399
REMARK  163  A    between atoms: _399  and  _640
REMARK  164  A    between atoms: _400  and  _402
REMARK  165  A    between atoms: _402  and  _403
REMARK  166  A    between atoms: _402  and  _405
REMARK  167  A    between atoms: _405  and  _406
REMARK  168  A    between atoms: _411  and  _412
REMARK  169  A    between atoms: _414  and  _416
REMARK  170  A    between atoms: _416  and  _417
REMARK  171  A    between atoms: _416  and  _419
REMARK  172  A    between atoms: _419  and  _420
REMARK  173  A    between atoms: _420  and  _421
REMARK  174  A    between atoms: _426  and  _428
REMARK  175  A    between atoms: _428  and  _429
REMARK  176  A    between atoms: _428  and  _431
REMARK  177  A    between atoms: _431  and  _432
REMARK  178  A    between atoms: _437  and  _438
REMARK  179  A    between atoms: _440  and  _442
REMARK  180  A    between atoms: _442  and  _443
REMARK  181  A    between atoms: _442  and  _445
REMARK  182  A    between atoms: _445  and  _446
REMARK  183  A    between atoms: _451  and  _452
REMARK  184  A    between atoms: _454  and  _456
REMARK  185  A    between atoms: _456  and  _457
REMARK  186  A    between atoms: _456  and  _459
REMARK  187  A    between atoms: _459  and  _460
REMARK  188  A    between atoms: _463  and  _465
REMARK  189  A    between atoms: _465  and  _466
REMARK  190  A    between atoms: _469  and  _471
REMARK  191  A    between atoms: _471  and  _472
REMARK  192  A    between atoms: _475  and  _477
REMARK  193  A    between atoms: _477  and  _478
REMARK  194  A    between atoms: _477  and  _480
REMARK  195  A    between atoms: _480  and  _481
REMARK  196  A    between atoms: _484  and  _486
REMARK  197  A    between atoms: _486  and  _487
REMARK  198  A    between atoms: _486  and  _489
REMARK  199  A    between atoms: _489  and  _490
REMARK  200  A    between atoms: _493  and  _495
REMARK  201  A    between atoms: _495  and  _496
REMARK  202  A    between atoms: _495  and  _498
REMARK  203  A    between atoms: _498  and  _499
REMARK  204  A    between atoms: _502  and  _504
REMARK  205  A    between atoms: _504  and  _505
REMARK  206  A    between atoms: _504  and  _507
REMARK  207  A    between atoms: _507  and  _508
REMARK  208  A    between atoms: _508  and  _509
REMARK  209  A    between atoms: _509  and  _510
REMARK  210  A    between atoms: _510  and  _511
REMARK  211  A    between atoms: _515  and  _517
REMARK  212  A    between atoms: _517  and  _518
REMARK  213  A    between atoms: _517  and  _520
REMARK  214  A    between atoms: _520  and  _521
REMARK  215  A    between atoms: _526  and  _528
REMARK  216  A    between atoms: _528  and  _529
REMARK  217  A    between atoms: _528  and  _531
REMARK  218  A    between atoms: _531  and  _532
REMARK  219  A    between atoms: _532  and  _533
REMARK  220  A    between atoms: _533  and  _534
REMARK  221  A    between atoms: _534  and  _535
REMARK  222  A    between atoms: _539  and  _541
REMARK  223  A    between atoms: _541  and  _542
REMARK  224  A    between atoms: _541  and  _544
REMARK  225  A    between atoms: _544  and  _545
REMARK  226  A    between atoms: _555  and  _557
REMARK  227  A    between atoms: _557  and  _558
REMARK  228  A    between atoms: _561  and  _563
REMARK  229  A    between atoms: _563  and  _564
REMARK  230  A    between atoms: _566  and  _568
REMARK  231  A    between atoms: _568  and  _569
REMARK  232  A    between atoms: _568  and  _571
REMARK  233  A    between atoms: _571  and  _572
REMARK  234  A    between atoms: _572  and  _573
REMARK  235  A    between atoms: _576  and  _578
REMARK  236  A    between atoms: _578  and  _579
REMARK  237  A    between atoms: _578  and  _581
REMARK  238  A    between atoms: _581  and  _582
REMARK  239  A    between atoms: _582  and  _583
REMARK  240  A    between atoms: _583  and  _584
REMARK  241  A    between atoms: _593  and  _595
REMARK  242  A    between atoms: _595  and  _596
REMARK  243  A    between atoms: _595  and  _598
REMARK  244  A    between atoms: _598  and  _599
REMARK  245  A    between atoms: _602  and  _604
REMARK  246  A    between atoms: _604  and  _605
REMARK  247  A    between atoms: _604  and  _607
REMARK  248  A    between atoms: _607  and  _608
REMARK  249  A    between atoms: _613  and  _614
REMARK  250  A    between atoms: _616  and  _618
REMARK  251  A    between atoms: _618  and  _619
REMARK  252  A    between atoms: _618  and  _621
REMARK  253  A    between atoms: _621  and  _622
REMARK  254  A    between atoms: _625  and  _627
REMARK  255  A    between atoms: _627  and  _628
REMARK  256  A    between atoms: _627  and  _630
REMARK  257  A    between atoms: _630  and  _631
REMARK  258  A    between atoms: _634  and  _636
REMARK  259  A    between atoms: _636  and  _637
REMARK  260  A    between atoms: _636  and  _639
REMARK  261  A    between atoms: _639  and  _640
REMARK  262  A    between atoms: _641  and  _643
REMARK  263  A    between atoms: _643  and  _644
REMARK  264  A    between atoms: _643  and  _646
REMARK  265  A    between atoms: _649  and  _651
REMARK  266  A    between atoms: _651  and  _652
REMARK  267  A    between atoms: _651  and  _654
REMARK  268  A    between atoms: _654  and  _655
REMARK  269  A    between atoms: _655  and  _656
REMARK  270  A    between atoms: _659  and  _661
REMARK  271  A    between atoms: _661  and  _662
REMARK  272  A    between atoms: _661  and  _664
REMARK  273  A    between atoms: _664  and  _665
REMARK  274  A    between atoms: _675  and  _677
REMARK  275  A    between atoms: _677  and  _678
REMARK  276  A    between atoms: _677  and  _680
REMARK  277  A    between atoms: _680  and  _681
REMARK  278  A    between atoms: _684  and  _686
REMARK  279  A    between atoms: _686  and  _687
REMARK  280  A    between atoms: _686  and  _689
REMARK  281  A    between atoms: _689  and  _690
REMARK  282  A    between atoms: _695  and  _696
REMARK                            x       y       z     vdW  Elec       q    Type
REMARK                         _______ _______ _______ _____ _____    ______ ____
ROOT
ATOM      1  O   HOH     1      39.442  62.425  -3.530  0.00  0.00    +0.000 OA
ENDROOT
TORSDOF 0
REMARK  Name = ../refined-set-2016/1g7q/1g7q_pocket.pdb
REMARK  282 active torsions:
REMARK  status: ('A' for Active; 'I' for Inactive)
REMARK    1  A    between atoms: _1  and  _3
REMARK    2  A    between atoms: _3  and  _4
REMARK    3  A    between atoms: _3  and  _6
REMARK    4  A    between atoms: _6  and  _7
REMARK    5  A    between atoms: _10  and  _12
REMARK    6  A    between atoms: _12  and  _13
REMARK    7  A    between atoms: _12  and  _15
REMARK    8  A    between atoms: _15  and  _16
REMARK    9  A    between atoms: _16  and  _17
REMARK   10  A    between atoms: _17  and  _18
REMARK   11  A    between atoms: _27  and  _29
REMARK   12  A    between atoms: _29  and  _30
REMARK   13  A    between atoms: _29  and  _32
REMARK   14  A    between atoms: _32  and  _33
REMARK   15  A    between atoms: _38  and  _39
REMARK   16  A    between atoms: _41  and  _43
REMARK   17  A    between atoms: _43  and  _44
REMARK   18  A    between atoms: _43  and  _46
REMARK   19  A    between atoms: _46  and  _47
REMARK   20  A    between atoms: _53  and  _55
REMARK   21  A    between atoms: _55  and  _56
REMARK   22  A    between atoms: _55  and  _58
REMARK   23  A    between atoms: _61  and  _63
REMARK   24  A    between atoms: _63  and  _64
REMARK   25  A    between atoms: _63  and  _66
REMARK   26  A    between atoms: _66  and  _67
REMARK   27  A    between atoms: _72  and  _73
REMARK   28  A    between atoms: _75  and  _77
REMARK   29  A    between atoms: _77  and  _78
REMARK   30  A    between atoms: _77  and  _80
REMARK   31  A    between atoms: _80  and  _81
REMARK   32  A    between atoms: _81  and  _82
REMARK   33  A    between atoms: _85  and  _87
REMARK   34  A    between atoms: _87  and  _88
REMARK   35  A    between atoms: _87  and  _90
REMARK   36  A    between atoms: _93  and  _95
REMARK   37  A    between atoms: _95  and  _96
REMARK   38  A    between atoms: _98  and  _100
REMARK   39  A    between atoms: _100  and  _101
REMARK   40  A    between atoms: _100  and  _103
REMARK   41  A    between atoms: _106  and  _108
REMARK   42  A    between atoms: _108  and  _109
REMARK   43  A    between atoms: _108  and  _111
REMARK   44  A    between atoms: _111  and  _112
REMARK   45  A    between atoms: _118  and  _120
REMARK   46  A    between atoms: _120  and  _121
REMARK   47  A    between atoms: _120  and  _123
REMARK   48  A    between atoms: _126  and  _128
REMARK   49  A    between atoms: _128  and  _129
REMARK   50  A    between atoms: _128  and  _131
REMARK   51  A    between atoms: _131  and  _132
REMARK   52  A    between atoms: _137  and  _138
REMARK   53  A    between atoms: _140  and  _142
REMARK   54  A    between atoms: _142  and  _143
REMARK   55  A    between atoms: _142  and  _145
REMARK   56  A    between atoms: _145  and  _146
REMARK   57  A    between atoms: _146  and  _147
REMARK   58  A    between atoms: _149  and  _151
REMARK   59  A    between atoms: _151  and  _152
REMARK   60  A    between atoms: _151  and  _154
REMARK   61  A    between atoms: _154  and  _155
REMARK   62  A    between atoms: _160  and  _161
REMARK   63  A    between atoms: _163  and  _165
REMARK   64  A    between atoms: _165  and  _166
REMARK   65  A    between atoms: _165  and  _168
REMARK   66  A    between atoms: _168  and  _169
REMARK   67  A    between atoms: _169  and  _170
REMARK   68  A    between atoms: _170  and  _171
REMARK   69  A    between atoms: _180  and  _182
REMARK   70  A    between atoms: _182  and  _183
REMARK   71  A    between atoms: _182  and  _185
REMARK   72  A    between atoms: _185  and  _186
REMARK   73  A    between atoms: _186  and  _187
REMARK   74  A    between atoms: _190  and  _192
REMARK   75  A    between atoms: _192  and  _193
REMARK   76  A    between atoms: _192  and  _195
REMARK   77  A    between atoms: _195  and  _196
REMARK   78  A    between atoms: _196  and  _197
REMARK   79  A    between atoms: _202  and  _204
REMARK   80  A    between atoms: _204  and  _205
REMARK   81  A    between atoms: _204  and  _207
REMARK   82  A    between atoms: _207  and  _208
REMARK   83  A    between atoms: _208  and  _209
REMARK   84  A    between atoms: _209  and  _210
REMARK   85  A    between atoms: _210  and  _211
REMARK   86  A    between atoms: _215  and  _217
REMARK   87  A    between atoms: _217  and  _218
REMARK   88  A    between atoms: _221  and  _223
REMARK   89  A    between atoms: _223  and  _224
REMARK   90  A    between atoms: _226  and  _228
REMARK   91  A    between atoms: _228  and  _229
REMARK   92  A    between atoms: _228  and  _231
REMARK   93  A    between atoms: _231  and  _232
REMARK   94  A    between atoms: _237  and  _239
REMARK   95  A    between atoms: _239  and  _240
REMARK   96  A    between atoms: _239  and  _242
REMARK   97  A    between atoms: _242  and  _243
REMARK   98  A    between atoms: _243  and  _244
REMARK   99  A    between atoms: _247  and  _249
REMARK  100  A    between atoms: _249  and  _250
REMARK  101  A    between atoms: _249  and  _252
REMARK  102  A    between atoms: _252  and  _253
REMARK  103  A    between atoms: _253  and  _254
REMARK  104  A    between atoms: _259  and  _261
REMARK  105  A    between atoms: _261  and  _262
REMARK  106  A    between atoms: _261  and  _264
REMARK  107  A    between atoms: _264  and  _265
REMARK  108  A    between atoms: _267  and  _269
REMARK  109  A    between atoms: _269  and  _270
REMARK  110  A    between atoms: _269  and  _272
REMARK  111  A    between atoms: _272  and  _273
REMARK  112  A    between atoms: _279  and  _281
REMARK  113  A    between atoms: _281  and  _282
REMARK  114  A    between atoms: _281  and  _284
REMARK  115  A    between atoms: _284  and  _285
REMARK  116  A    between atoms: _285  and  _286
REMARK  117  A    between atoms: _286  and  _287
REMARK  118  A    between atoms: _296  and  _298
REMARK  119  A    between atoms: _298  and  _299
REMARK  120  A    between atoms: _298  and  _301
REMARK  121  A    between atoms: _304  and  _306
REMARK  122  A    between atoms: _306  and  _307
REMARK  123  A    between atoms: _306  and  _309
REMARK  124  A    between atoms: _309  and  _310
REMARK  125  A    between atoms: _313  and  _315
REMARK  126  A    between atoms: _315  and  _316
REMARK  127  A    between atoms: _315  and  _318
REMARK  128  A    between atoms: _318  and  _319
REMARK  129  A    between atoms: _322  and  _324
REMARK  130  A    between atoms: _324  and  _325
REMARK  131  A    between atoms: _324  and  _327
REMARK  132  A    between atoms: _327  and  _328
REMARK  133  A    between atoms: _331  and  _333
REMARK  134  A    between atoms: _333  and  _334
REMARK  135  A    between atoms: _333  and  _336
REMARK  136  A    between atoms: _336  and  _337
REMARK  137  A    between atoms: _340  and  _342
REMARK  138  A    between atoms: _342  and  _343
REMARK  139  A    between atoms: _342  and  _345
REMARK  140  A    between atoms: _345  and  _346
REMARK  141  A    between atoms: _351  and  _352
REMARK  142  A    between atoms: _354  and  _356
REMARK  143  A    between atoms: _356  and  _357
REMARK  144  A    between atoms: _356  and  _359
REMARK  145  A    between atoms: _359  and  _360
REMARK  146  A    between atoms: _363  and  _365
REMARK  147  A    between atoms: _365  and  _366
REMARK  148  A    between atoms: _365  and  _368
REMARK  149  A    between atoms: _371  and  _373
REMARK  150  A    between atoms: _373  and  _374
REMARK  151  A    between atoms: _373  and  _376
REMARK  152  A    between atoms: _376  and  _377
REMARK  153  A    between atoms: _380  and  _382
REMARK  154  A    between atoms: _382  and  _383
REMARK  155  A    between atoms: _382  and  _385
REMARK  156  A    between atoms: _385  and  _386
REMARK  157  A    between atoms: _388  and  _390
REMARK  158  A    between atoms: _390  and  _391
REMARK  159  A    between atoms: _393  and  _395
REMARK  160  A    between atoms: _395  and  _396
REMARK  161  A    between atoms: _395  and  _398
REMARK  162  A    between atoms: _398  and  _399
REMARK  163  A    between atoms: _399  and  _640
REMARK  164  A    between atoms: _400  and  _402
REMARK  165  A    between atoms: _402  and  _403
REMARK  166  A    between atoms: _402  and  _405
REMARK  167  A    between atoms: _405  and  _406
REMARK  168  A    between atoms: _411  and  _412
REMARK  169  A    between atoms: _414  and  _416
REMARK  170  A    between atoms: _416  and  _417
REMARK  171  A    between atoms: _416  and  _419
REMARK  172  A    between atoms: _419  and  _420
REMARK  173  A    between atoms: _420  and  _421
REMARK  174  A    between atoms: _426  and  _428
REMARK  175  A    between atoms: _428  and  _429
REMARK  176  A    between atoms: _428  and  _431
REMARK  177  A    between atoms: _431  and  _432
REMARK  178  A    between atoms: _437  and  _438
REMARK  179  A    between atoms: _440  and  _442
REMARK  180  A    between atoms: _442  and  _443
REMARK  181  A    between atoms: _442  and  _445
REMARK  182  A    between atoms: _445  and  _446
REMARK  183  A    between atoms: _451  and  _452
REMARK  184  A    between atoms: _454  and  _456
REMARK  185  A    between atoms: _456  and  _457
REMARK  186  A    between atoms: _456  and  _459
REMARK  187  A    between atoms: _459  and  _460
REMARK  188  A    between atoms: _463  and  _465
REMARK  189  A    between atoms: _465  and  _466
REMARK  190  A    between atoms: _469  and  _471
REMARK  191  A    between atoms: _471  and  _472
REMARK  192  A    between atoms: _475  and  _477
REMARK  193  A    between atoms: _477  and  _478
REMARK  194  A    between atoms: _477  and  _480
REMARK  195  A    between atoms: _480  and  _481
REMARK  196  A    between atoms: _484  and  _486
REMARK  197  A    between atoms: _486  and  _487
REMARK  198  A    between atoms: _486  and  _489
REMARK  199  A    between atoms: _489  and  _490
REMARK  200  A    between atoms: _493  and  _495
REMARK  201  A    between atoms: _495  and  _496
REMARK  202  A    between atoms: _495  and  _498
REMARK  203  A    between atoms: _498  and  _499
REMARK  204  A    between atoms: _502  and  _504
REMARK  205  A    between atoms: _504  and  _505
REMARK  206  A    between atoms: _504  and  _507
REMARK  207  A    between atoms: _507  and  _508
REMARK  208  A    between atoms: _508  and  _509
REMARK  209  A    between atoms: _509  and  _510
REMARK  210  A    between atoms: _510  and  _511
REMARK  211  A    between atoms: _515  and  _517
REMARK  212  A    between atoms: _517  and  _518
REMARK  213  A    between atoms: _517  and  _520
REMARK  214  A    between atoms: _520  and  _521
REMARK  215  A    between atoms: _526  and  _528
REMARK  216  A    between atoms: _528  and  _529
REMARK  217  A    between atoms: _528  and  _531
REMARK  218  A    between atoms: _531  and  _532
REMARK  219  A    between atoms: _532  and  _533
REMARK  220  A    between atoms: _533  and  _534
REMARK  221  A    between atoms: _534  and  _535
REMARK  222  A    between atoms: _539  and  _541
REMARK  223  A    between atoms: _541  and  _542
REMARK  224  A    between atoms: _541  and  _544
REMARK  225  A    between atoms: _544  and  _545
REMARK  226  A    between atoms: _555  and  _557
REMARK  227  A    between atoms: _557  and  _558
REMARK  228  A    between atoms: _561  and  _563
REMARK  229  A    between atoms: _563  and  _564
REMARK  230  A    between atoms: _566  and  _568
REMARK  231  A    between atoms: _568  and  _569
REMARK  232  A    between atoms: _568  and  _571
REMARK  233  A    between atoms: _571  and  _572
REMARK  234  A    between atoms: _572  and  _573
REMARK  235  A    between atoms: _576  and  _578
REMARK  236  A    between atoms: _578  and  _579
REMARK  237  A    between atoms: _578  and  _581
REMARK  238  A    between atoms: _581  and  _582
REMARK  239  A    between atoms: _582  and  _583
REMARK  240  A    between atoms: _583  and  _584
REMARK  241  A    between atoms: _593  and  _595
REMARK  242  A    between atoms: _595  and  _596
REMARK  243  A    between atoms: _595  and  _598
REMARK  244  A    between atoms: _598  and  _599
REMARK  245  A    between atoms: _602  and  _604
REMARK  246  A    between atoms: _604  and  _605
REMARK  247  A    between atoms: _604  and  _607
REMARK  248  A    between atoms: _607  and  _608
REMARK  249  A    between atoms: _613  and  _614
REMARK  250  A    between atoms: _616  and  _618
REMARK  251  A    between atoms: _618  and  _619
REMARK  252  A    between atoms: _618  and  _621
REMARK  253  A    between atoms: _621  and  _622
REMARK  254  A    between atoms: _625  and  _627
REMARK  255  A    between atoms: _627  and  _628
REMARK  256  A    between atoms: _627  and  _630
REMARK  257  A    between atoms: _630  and  _631
REMARK  258  A    between atoms: _634  and  _636
REMARK  259  A    between atoms: _636  and  _637
REMARK  260  A    between atoms: _636  and  _639
REMARK  261  A    between atoms: _639  and  _640
REMARK  262  A    between atoms: _641  and  _643
REMARK  263  A    between atoms: _643  and  _644
REMARK  264  A    between atoms: _643  and  _646
REMARK  265  A    between atoms: _649  and  _651
REMARK  266  A    between atoms: _651  and  _652
REMARK  267  A    between atoms: _651  and  _654
REMARK  268  A    between atoms: _654  and  _655
REMARK  269  A    between atoms: _655  and  _656
REMARK  270  A    between atoms: _659  and  _661
REMARK  271  A    between atoms: _661  and  _662
REMARK  272  A    between atoms: _661  and  _664
REMARK  273  A    between atoms: _664  and  _665
REMARK  274  A    between atoms: _675  and  _677
REMARK  275  A    between atoms: _677  and  _678
REMARK  276  A    between atoms: _677  and  _680
REMARK  277  A    between atoms: _680  and  _681
REMARK  278  A    between atoms: _684  and  _686
REMARK  279  A    between atoms: _686  and  _687
REMARK  280  A    between atoms: _686  and  _689
REMARK  281  A    between atoms: _689  and  _690
REMARK  282  A    between atoms: _695  and  _696
REMARK                            x       y       z     vdW  Elec       q    Type
REMARK                         _______ _______ _______ _____ _____    ______ ____
ROOT
ATOM      1  O   HOH     1      47.885  62.880   2.974  0.00  0.00    +0.000 OA
ENDROOT
TORSDOF 0
REMARK  Name = ../refined-set-2016/1g7q/1g7q_pocket.pdb
REMARK  282 active torsions:
REMARK  status: ('A' for Active; 'I' for Inactive)
REMARK    1  A    between atoms: _1  and  _3
REMARK    2  A    between atoms: _3  and  _4
REMARK    3  A    between atoms: _3  and  _6
REMARK    4  A    between atoms: _6  and  _7
REMARK    5  A    between atoms: _10  and  _12
REMARK    6  A    between atoms: _12  and  _13
REMARK    7  A    between atoms: _12  and  _15
REMARK    8  A    between atoms: _15  and  _16
REMARK    9  A    between atoms: _16  and  _17
REMARK   10  A    between atoms: _17  and  _18
REMARK   11  A    between atoms: _27  and  _29
REMARK   12  A    between atoms: _29  and  _30
REMARK   13  A    between atoms: _29  and  _32
REMARK   14  A    between atoms: _32  and  _33
REMARK   15  A    between atoms: _38  and  _39
REMARK   16  A    between atoms: _41  and  _43
REMARK   17  A    between atoms: _43  and  _44
REMARK   18  A    between atoms: _43  and  _46
REMARK   19  A    between atoms: _46  and  _47
REMARK   20  A    between atoms: _53  and  _55
REMARK   21  A    between atoms: _55  and  _56
REMARK   22  A    between atoms: _55  and  _58
REMARK   23  A    between atoms: _61  and  _63
REMARK   24  A    between atoms: _63  and  _64
REMARK   25  A    between atoms: _63  and  _66
REMARK   26  A    between atoms: _66  and  _67
REMARK   27  A    between atoms: _72  and  _73
REMARK   28  A    between atoms: _75  and  _77
REMARK   29  A    between atoms: _77  and  _78
REMARK   30  A    between atoms: _77  and  _80
REMARK   31  A    between atoms: _80  and  _81
REMARK   32  A    between atoms: _81  and  _82
REMARK   33  A    between atoms: _85  and  _87
REMARK   34  A    between atoms: _87  and  _88
REMARK   35  A    between atoms: _87  and  _90
REMARK   36  A    between atoms: _93  and  _95
REMARK   37  A    between atoms: _95  and  _96
REMARK   38  A    between atoms: _98  and  _100
REMARK   39  A    between atoms: _100  and  _101
REMARK   40  A    between atoms: _100  and  _103
REMARK   41  A    between atoms: _106  and  _108
REMARK   42  A    between atoms: _108  and  _109
REMARK   43  A    between atoms: _108  and  _111
REMARK   44  A    between atoms: _111  and  _112
REMARK   45  A    between atoms: _118  and  _120
REMARK   46  A    between atoms: _120  and  _121
REMARK   47  A    between atoms: _120  and  _123
REMARK   48  A    between atoms: _126  and  _128
REMARK   49  A    between atoms: _128  and  _129
REMARK   50  A    between atoms: _128  and  _131
REMARK   51  A    between atoms: _131  and  _132
REMARK   52  A    between atoms: _137  and  _138
REMARK   53  A    between atoms: _140  and  _142
REMARK   54  A    between atoms: _142  and  _143
REMARK   55  A    between atoms: _142  and  _145
REMARK   56  A    between atoms: _145  and  _146
REMARK   57  A    between atoms: _146  and  _147
REMARK   58  A    between atoms: _149  and  _151
REMARK   59  A    between atoms: _151  and  _152
REMARK   60  A    between atoms: _151  and  _154
REMARK   61  A    between atoms: _154  and  _155
REMARK   62  A    between atoms: _160  and  _161
REMARK   63  A    between atoms: _163  and  _165
REMARK   64  A    between atoms: _165  and  _166
REMARK   65  A    between atoms: _165  and  _168
REMARK   66  A    between atoms: _168  and  _169
REMARK   67  A    between atoms: _169  and  _170
REMARK   68  A    between atoms: _170  and  _171
REMARK   69  A    between atoms: _180  and  _182
REMARK   70  A    between atoms: _182  and  _183
REMARK   71  A    between atoms: _182  and  _185
REMARK   72  A    between atoms: _185  and  _186
REMARK   73  A    between atoms: _186  and  _187
REMARK   74  A    between atoms: _190  and  _192
REMARK   75  A    between atoms: _192  and  _193
REMARK   76  A    between atoms: _192  and  _195
REMARK   77  A    between atoms: _195  and  _196
REMARK   78  A    between atoms: _196  and  _197
REMARK   79  A    between atoms: _202  and  _204
REMARK   80  A    between atoms: _204  and  _205
REMARK   81  A    between atoms: _204  and  _207
REMARK   82  A    between atoms: _207  and  _208
REMARK   83  A    between atoms: _208  and  _209
REMARK   84  A    between atoms: _209  and  _210
REMARK   85  A    between atoms: _210  and  _211
REMARK   86  A    between atoms: _215  and  _217
REMARK   87  A    between atoms: _217  and  _218
REMARK   88  A    between atoms: _221  and  _223
REMARK   89  A    between atoms: _223  and  _224
REMARK   90  A    between atoms: _226  and  _228
REMARK   91  A    between atoms: _228  and  _229
REMARK   92  A    between atoms: _228  and  _231
REMARK   93  A    between atoms: _231  and  _232
REMARK   94  A    between atoms: _237  and  _239
REMARK   95  A    between atoms: _239  and  _240
REMARK   96  A    between atoms: _239  and  _242
REMARK   97  A    between atoms: _242  and  _243
REMARK   98  A    between atoms: _243  and  _244
REMARK   99  A    between atoms: _247  and  _249
REMARK  100  A    between atoms: _249  and  _250
REMARK  101  A    between atoms: _249  and  _252
REMARK  102  A    between atoms: _252  and  _253
REMARK  103  A    between atoms: _253  and  _254
REMARK  104  A    between atoms: _259  and  _261
REMARK  105  A    between atoms: _261  and  _262
REMARK  106  A    between atoms: _261  and  _264
REMARK  107  A    between atoms: _264  and  _265
REMARK  108  A    between atoms: _267  and  _269
REMARK  109  A    between atoms: _269  and  _270
REMARK  110  A    between atoms: _269  and  _272
REMARK  111  A    between atoms: _272  and  _273
REMARK  112  A    between atoms: _279  and  _281
REMARK  113  A    between atoms: _281  and  _282
REMARK  114  A    between atoms: _281  and  _284
REMARK  115  A    between atoms: _284  and  _285
REMARK  116  A    between atoms: _285  and  _286
REMARK  117  A    between atoms: _286  and  _287
REMARK  118  A    between atoms: _296  and  _298
REMARK  119  A    between atoms: _298  and  _299
REMARK  120  A    between atoms: _298  and  _301
REMARK  121  A    between atoms: _304  and  _306
REMARK  122  A    between atoms: _306  and  _307
REMARK  123  A    between atoms: _306  and  _309
REMARK  124  A    between atoms: _309  and  _310
REMARK  125  A    between atoms: _313  and  _315
REMARK  126  A    between atoms: _315  and  _316
REMARK  127  A    between atoms: _315  and  _318
REMARK  128  A    between atoms: _318  and  _319
REMARK  129  A    between atoms: _322  and  _324
REMARK  130  A    between atoms: _324  and  _325
REMARK  131  A    between atoms: _324  and  _327
REMARK  132  A    between atoms: _327  and  _328
REMARK  133  A    between atoms: _331  and  _333
REMARK  134  A    between atoms: _333  and  _334
REMARK  135  A    between atoms: _333  and  _336
REMARK  136  A    between atoms: _336  and  _337
REMARK  137  A    between atoms: _340  and  _342
REMARK  138  A    between atoms: _342  and  _343
REMARK  139  A    between atoms: _342  and  _345
REMARK  140  A    between atoms: _345  and  _346
REMARK  141  A    between atoms: _351  and  _352
REMARK  142  A    between atoms: _354  and  _356
REMARK  143  A    between atoms: _356  and  _357
REMARK  144  A    between atoms: _356  and  _359
REMARK  145  A    between atoms: _359  and  _360
REMARK  146  A    between atoms: _363  and  _365
REMARK  147  A    between atoms: _365  and  _366
REMARK  148  A    between atoms: _365  and  _368
REMARK  149  A    between atoms: _371  and  _373
REMARK  150  A    between atoms: _373  and  _374
REMARK  151  A    between atoms: _373  and  _376
REMARK  152  A    between atoms: _376  and  _377
REMARK  153  A    between atoms: _380  and  _382
REMARK  154  A    between atoms: _382  and  _383
REMARK  155  A    between atoms: _382  and  _385
REMARK  156  A    between atoms: _385  and  _386
REMARK  157  A    between atoms: _388  and  _390
REMARK  158  A    between atoms: _390  and  _391
REMARK  159  A    between atoms: _393  and  _395
REMARK  160  A    between atoms: _395  and  _396
REMARK  161  A    between atoms: _395  and  _398
REMARK  162  A    between atoms: _398  and  _399
REMARK  163  A    between atoms: _399  and  _640
REMARK  164  A    between atoms: _400  and  _402
REMARK  165  A    between atoms: _402  and  _403
REMARK  166  A    between atoms: _402  and  _405
REMARK  167  A    between atoms: _405  and  _406
REMARK  168  A    between atoms: _411  and  _412
REMARK  169  A    between atoms: _414  and  _416
REMARK  170  A    between atoms: _416  and  _417
REMARK  171  A    between atoms: _416  and  _419
REMARK  172  A    between atoms: _419  and  _420
REMARK  173  A    between atoms: _420  and  _421
REMARK  174  A    between atoms: _426  and  _428
REMARK  175  A    between atoms: _428  and  _429
REMARK  176  A    between atoms: _428  and  _431
REMARK  177  A    between atoms: _431  and  _432
REMARK  178  A    between atoms: _437  and  _438
REMARK  179  A    between atoms: _440  and  _442
REMARK  180  A    between atoms: _442  and  _443
REMARK  181  A    between atoms: _442  and  _445
REMARK  182  A    between atoms: _445  and  _446
REMARK  183  A    between atoms: _451  and  _452
REMARK  184  A    between atoms: _454  and  _456
REMARK  185  A    between atoms: _456  and  _457
REMARK  186  A    between atoms: _456  and  _459
REMARK  187  A    between atoms: _459  and  _460
REMARK  188  A    between atoms: _463  and  _465
REMARK  189  A    between atoms: _465  and  _466
REMARK  190  A    between atoms: _469  and  _471
REMARK  191  A    between atoms: _471  and  _472
REMARK  192  A    between atoms: _475  and  _477
REMARK  193  A    between atoms: _477  and  _478
REMARK  194  A    between atoms: _477  and  _480
REMARK  195  A    between atoms: _480  and  _481
REMARK  196  A    between atoms: _484  and  _486
REMARK  197  A    between atoms: _486  and  _487
REMARK  198  A    between atoms: _486  and  _489
REMARK  199  A    between atoms: _489  and  _490
REMARK  200  A    between atoms: _493  and  _495
REMARK  201  A    between atoms: _495  and  _496
REMARK  202  A    between atoms: _495  and  _498
REMARK  203  A    between atoms: _498  and  _499
REMARK  204  A    between atoms: _502  and  _504
REMARK  205  A    between atoms: _504  and  _505
REMARK  206  A    between atoms: _504  and  _507
REMARK  207  A    between atoms: _507  and  _508
REMARK  208  A    between atoms: _508  and  _509
REMARK  209  A    between atoms: _509  and  _510
REMARK  210  A    between atoms: _510  and  _511
REMARK  211  A    between atoms: _515  and  _517
REMARK  212  A    between atoms: _517  and  _518
REMARK  213  A    between atoms: _517  and  _520
REMARK  214  A    between atoms: _520  and  _521
REMARK  215  A    between atoms: _526  and  _528
REMARK  216  A    between atoms: _528  and  _529
REMARK  217  A    between atoms: _528  and  _531
REMARK  218  A    between atoms: _531  and  _532
REMARK  219  A    between atoms: _532  and  _533
REMARK  220  A    between atoms: _533  and  _534
REMARK  221  A    between atoms: _534  and  _535
REMARK  222  A    between atoms: _539  and  _541
REMARK  223  A    between atoms: _541  and  _542
REMARK  224  A    between atoms: _541  and  _544
REMARK  225  A    between atoms: _544  and  _545
REMARK  226  A    between atoms: _555  and  _557
REMARK  227  A    between atoms: _557  and  _558
REMARK  228  A    between atoms: _561  and  _563
REMARK  229  A    between atoms: _563  and  _564
REMARK  230  A    between atoms: _566  and  _568
REMARK  231  A    between atoms: _568  and  _569
REMARK  232  A    between atoms: _568  and  _571
REMARK  233  A    between atoms: _571  and  _572
REMARK  234  A    between atoms: _572  and  _573
REMARK  235  A    between atoms: _576  and  _578
REMARK  236  A    between atoms: _578  and  _579
REMARK  237  A    between atoms: _578  and  _581
REMARK  238  A    between atoms: _581  and  _582
REMARK  239  A    between atoms: _582  and  _583
REMARK  240  A    between atoms: _583  and  _584
REMARK  241  A    between atoms: _593  and  _595
REMARK  242  A    between atoms: _595  and  _596
REMARK  243  A    between atoms: _595  and  _598
REMARK  244  A    between atoms: _598  and  _599
REMARK  245  A    between atoms: _602  and  _604
REMARK  246  A    between atoms: _604  and  _605
REMARK  247  A    between atoms: _604  and  _607
REMARK  248  A    between atoms: _607  and  _608
REMARK  249  A    between atoms: _613  and  _614
REMARK  250  A    between atoms: _616  and  _618
REMARK  251  A    between atoms: _618  and  _619
REMARK  252  A    between atoms: _618  and  _621
REMARK  253  A    between atoms: _621  and  _622
REMARK  254  A    between atoms: _625  and  _627
REMARK  255  A    between atoms: _627  and  _628
REMARK  256  A    between atoms: _627  and  _630
REMARK  257  A    between atoms: _630  and  _631
REMARK  258  A    between atoms: _634  and  _636
REMARK  259  A    between atoms: _636  and  _637
REMARK  260  A    between atoms: _636  and  _639
REMARK  261  A    between atoms: _639  and  _640
REMARK  262  A    between atoms: _641  and  _643
REMARK  263  A    between atoms: _643  and  _644
REMARK  264  A    between atoms: _643  and  _646
REMARK  265  A    between atoms: _649  and  _651
REMARK  266  A    between atoms: _651  and  _652
REMARK  267  A    between atoms: _651  and  _654
REMARK  268  A    between atoms: _654  and  _655
REMARK  269  A    between atoms: _655  and  _656
REMARK  270  A    between atoms: _659  and  _661
REMARK  271  A    between atoms: _661  and  _662
REMARK  272  A    between atoms: _661  and  _664
REMARK  273  A    between atoms: _664  and  _665
REMARK  274  A    between atoms: _675  and  _677
REMARK  275  A    between atoms: _677  and  _678
REMARK  276  A    between atoms: _677  and  _680
REMARK  277  A    between atoms: _680  and  _681
REMARK  278  A    between atoms: _684  and  _686
REMARK  279  A    between atoms: _686  and  _687
REMARK  280  A    between atoms: _686  and  _689
REMARK  281  A    between atoms: _689  and  _690
REMARK  282  A    between atoms: _695  and  _696
REMARK                            x       y       z     vdW  Elec       q    Type
REMARK                         _______ _______ _______ _____ _____    ______ ____
ROOT
ATOM      1  O   HOH     1      47.643  61.892   0.541  0.00  0.00    +0.000 OA
ENDROOT
TORSDOF 0
REMARK  Name = ../refined-set-2016/1g7q/1g7q_pocket.pdb
REMARK  282 active torsions:
REMARK  status: ('A' for Active; 'I' for Inactive)
REMARK    1  A    between atoms: _1  and  _3
REMARK    2  A    between atoms: _3  and  _4
REMARK    3  A    between atoms: _3  and  _6
REMARK    4  A    between atoms: _6  and  _7
REMARK    5  A    between atoms: _10  and  _12
REMARK    6  A    between atoms: _12  and  _13
REMARK    7  A    between atoms: _12  and  _15
REMARK    8  A    between atoms: _15  and  _16
REMARK    9  A    between atoms: _16  and  _17
REMARK   10  A    between atoms: _17  and  _18
REMARK   11  A    between atoms: _27  and  _29
REMARK   12  A    between atoms: _29  and  _30
REMARK   13  A    between atoms: _29  and  _32
REMARK   14  A    between atoms: _32  and  _33
REMARK   15  A    between atoms: _38  and  _39
REMARK   16  A    between atoms: _41  and  _43
REMARK   17  A    between atoms: _43  and  _44
REMARK   18  A    between atoms: _43  and  _46
REMARK   19  A    between atoms: _46  and  _47
REMARK   20  A    between atoms: _53  and  _55
REMARK   21  A    between atoms: _55  and  _56
REMARK   22  A    between atoms: _55  and  _58
REMARK   23  A    between atoms: _61  and  _63
REMARK   24  A    between atoms: _63  and  _64
REMARK   25  A    between atoms: _63  and  _66
REMARK   26  A    between atoms: _66  and  _67
REMARK   27  A    between atoms: _72  and  _73
REMARK   28  A    between atoms: _75  and  _77
REMARK   29  A    between atoms: _77  and  _78
REMARK   30  A    between atoms: _77  and  _80
REMARK   31  A    between atoms: _80  and  _81
REMARK   32  A    between atoms: _81  and  _82
REMARK   33  A    between atoms: _85  and  _87
REMARK   34  A    between atoms: _87  and  _88
REMARK   35  A    between atoms: _87  and  _90
REMARK   36  A    between atoms: _93  and  _95
REMARK   37  A    between atoms: _95  and  _96
REMARK   38  A    between atoms: _98  and  _100
REMARK   39  A    between atoms: _100  and  _101
REMARK   40  A    between atoms: _100  and  _103
REMARK   41  A    between atoms: _106  and  _108
REMARK   42  A    between atoms: _108  and  _109
REMARK   43  A    between atoms: _108  and  _111
REMARK   44  A    between atoms: _111  and  _112
REMARK   45  A    between atoms: _118  and  _120
REMARK   46  A    between atoms: _120  and  _121
REMARK   47  A    between atoms: _120  and  _123
REMARK   48  A    between atoms: _126  and  _128
REMARK   49  A    between atoms: _128  and  _129
REMARK   50  A    between atoms: _128  and  _131
REMARK   51  A    between atoms: _131  and  _132
REMARK   52  A    between atoms: _137  and  _138
REMARK   53  A    between atoms: _140  and  _142
REMARK   54  A    between atoms: _142  and  _143
REMARK   55  A    between atoms: _142  and  _145
REMARK   56  A    between atoms: _145  and  _146
REMARK   57  A    between atoms: _146  and  _147
REMARK   58  A    between atoms: _149  and  _151
REMARK   59  A    between atoms: _151  and  _152
REMARK   60  A    between atoms: _151  and  _154
REMARK   61  A    between atoms: _154  and  _155
REMARK   62  A    between atoms: _160  and  _161
REMARK   63  A    between atoms: _163  and  _165
REMARK   64  A    between atoms: _165  and  _166
REMARK   65  A    between atoms: _165  and  _168
REMARK   66  A    between atoms: _168  and  _169
REMARK   67  A    between atoms: _169  and  _170
REMARK   68  A    between atoms: _170  and  _171
REMARK   69  A    between atoms: _180  and  _182
REMARK   70  A    between atoms: _182  and  _183
REMARK   71  A    between atoms: _182  and  _185
REMARK   72  A    between atoms: _185  and  _186
REMARK   73  A    between atoms: _186  and  _187
REMARK   74  A    between atoms: _190  and  _192
REMARK   75  A    between atoms: _192  and  _193
REMARK   76  A    between atoms: _192  and  _195
REMARK   77  A    between atoms: _195  and  _196
REMARK   78  A    between atoms: _196  and  _197
REMARK   79  A    between atoms: _202  and  _204
REMARK   80  A    between atoms: _204  and  _205
REMARK   81  A    between atoms: _204  and  _207
REMARK   82  A    between atoms: _207  and  _208
REMARK   83  A    between atoms: _208  and  _209
REMARK   84  A    between atoms: _209  and  _210
REMARK   85  A    between atoms: _210  and  _211
REMARK   86  A    between atoms: _215  and  _217
REMARK   87  A    between atoms: _217  and  _218
REMARK   88  A    between atoms: _221  and  _223
REMARK   89  A    between atoms: _223  and  _224
REMARK   90  A    between atoms: _226  and  _228
REMARK   91  A    between atoms: _228  and  _229
REMARK   92  A    between atoms: _228  and  _231
REMARK   93  A    between atoms: _231  and  _232
REMARK   94  A    between atoms: _237  and  _239
REMARK   95  A    between atoms: _239  and  _240
REMARK   96  A    between atoms: _239  and  _242
REMARK   97  A    between atoms: _242  and  _243
REMARK   98  A    between atoms: _243  and  _244
REMARK   99  A    between atoms: _247  and  _249
REMARK  100  A    between atoms: _249  and  _250
REMARK  101  A    between atoms: _249  and  _252
REMARK  102  A    between atoms: _252  and  _253
REMARK  103  A    between atoms: _253  and  _254
REMARK  104  A    between atoms: _259  and  _261
REMARK  105  A    between atoms: _261  and  _262
REMARK  106  A    between atoms: _261  and  _264
REMARK  107  A    between atoms: _264  and  _265
REMARK  108  A    between atoms: _267  and  _269
REMARK  109  A    between atoms: _269  and  _270
REMARK  110  A    between atoms: _269  and  _272
REMARK  111  A    between atoms: _272  and  _273
REMARK  112  A    between atoms: _279  and  _281
REMARK  113  A    between atoms: _281  and  _282
REMARK  114  A    between atoms: _281  and  _284
REMARK  115  A    between atoms: _284  and  _285
REMARK  116  A    between atoms: _285  and  _286
REMARK  117  A    between atoms: _286  and  _287
REMARK  118  A    between atoms: _296  and  _298
REMARK  119  A    between atoms: _298  and  _299
REMARK  120  A    between atoms: _298  and  _301
REMARK  121  A    between atoms: _304  and  _306
REMARK  122  A    between atoms: _306  and  _307
REMARK  123  A    between atoms: _306  and  _309
REMARK  124  A    between atoms: _309  and  _310
REMARK  125  A    between atoms: _313  and  _315
REMARK  126  A    between atoms: _315  and  _316
REMARK  127  A    between atoms: _315  and  _318
REMARK  128  A    between atoms: _318  and  _319
REMARK  129  A    between atoms: _322  and  _324
REMARK  130  A    between atoms: _324  and  _325
REMARK  131  A    between atoms: _324  and  _327
REMARK  132  A    between atoms: _327  and  _328
REMARK  133  A    between atoms: _331  and  _333
REMARK  134  A    between atoms: _333  and  _334
REMARK  135  A    between atoms: _333  and  _336
REMARK  136  A    between atoms: _336  and  _337
REMARK  137  A    between atoms: _340  and  _342
REMARK  138  A    between atoms: _342  and  _343
REMARK  139  A    between atoms: _342  and  _345
REMARK  140  A    between atoms: _345  and  _346
REMARK  141  A    between atoms: _351  and  _352
REMARK  142  A    between atoms: _354  and  _356
REMARK  143  A    between atoms: _356  and  _357
REMARK  144  A    between atoms: _356  and  _359
REMARK  145  A    between atoms: _359  and  _360
REMARK  146  A    between atoms: _363  and  _365
REMARK  147  A    between atoms: _365  and  _366
REMARK  148  A    between atoms: _365  and  _368
REMARK  149  A    between atoms: _371  and  _373
REMARK  150  A    between atoms: _373  and  _374
REMARK  151  A    between atoms: _373  and  _376
REMARK  152  A    between atoms: _376  and  _377
REMARK  153  A    between atoms: _380  and  _382
REMARK  154  A    between atoms: _382  and  _383
REMARK  155  A    between atoms: _382  and  _385
REMARK  156  A    between atoms: _385  and  _386
REMARK  157  A    between atoms: _388  and  _390
REMARK  158  A    between atoms: _390  and  _391
REMARK  159  A    between atoms: _393  and  _395
REMARK  160  A    between atoms: _395  and  _396
REMARK  161  A    between atoms: _395  and  _398
REMARK  162  A    between atoms: _398  and  _399
REMARK  163  A    between atoms: _399  and  _640
REMARK  164  A    between atoms: _400  and  _402
REMARK  165  A    between atoms: _402  and  _403
REMARK  166  A    between atoms: _402  and  _405
REMARK  167  A    between atoms: _405  and  _406
REMARK  168  A    between atoms: _411  and  _412
REMARK  169  A    between atoms: _414  and  _416
REMARK  170  A    between atoms: _416  and  _417
REMARK  171  A    between atoms: _416  and  _419
REMARK  172  A    between atoms: _419  and  _420
REMARK  173  A    between atoms: _420  and  _421
REMARK  174  A    between atoms: _426  and  _428
REMARK  175  A    between atoms: _428  and  _429
REMARK  176  A    between atoms: _428  and  _431
REMARK  177  A    between atoms: _431  and  _432
REMARK  178  A    between atoms: _437  and  _438
REMARK  179  A    between atoms: _440  and  _442
REMARK  180  A    between atoms: _442  and  _443
REMARK  181  A    between atoms: _442  and  _445
REMARK  182  A    between atoms: _445  and  _446
REMARK  183  A    between atoms: _451  and  _452
REMARK  184  A    between atoms: _454  and  _456
REMARK  185  A    between atoms: _456  and  _457
REMARK  186  A    between atoms: _456  and  _459
REMARK  187  A    between atoms: _459  and  _460
REMARK  188  A    between atoms: _463  and  _465
REMARK  189  A    between atoms: _465  and  _466
REMARK  190  A    between atoms: _469  and  _471
REMARK  191  A    between atoms: _471  and  _472
REMARK  192  A    between atoms: _475  and  _477
REMARK  193  A    between atoms: _477  and  _478
REMARK  194  A    between atoms: _477  and  _480
REMARK  195  A    between atoms: _480  and  _481
REMARK  196  A    between atoms: _484  and  _486
REMARK  197  A    between atoms: _486  and  _487
REMARK  198  A    between atoms: _486  and  _489
REMARK  199  A    between atoms: _489  and  _490
REMARK  200  A    between atoms: _493  and  _495
REMARK  201  A    between atoms: _495  and  _496
REMARK  202  A    between atoms: _495  and  _498
REMARK  203  A    between atoms: _498  and  _499
REMARK  204  A    between atoms: _502  and  _504
REMARK  205  A    between atoms: _504  and  _505
REMARK  206  A    between atoms: _504  and  _507
REMARK  207  A    between atoms: _507  and  _508
REMARK  208  A    between atoms: _508  and  _509
REMARK  209  A    between atoms: _509  and  _510
REMARK  210  A    between atoms: _510  and  _511
REMARK  211  A    between atoms: _515  and  _517
REMARK  212  A    between atoms: _517  and  _518
REMARK  213  A    between atoms: _517  and  _520
REMARK  214  A    between atoms: _520  and  _521
REMARK  215  A    between atoms: _526  and  _528
REMARK  216  A    between atoms: _528  and  _529
REMARK  217  A    between atoms: _528  and  _531
REMARK  218  A    between atoms: _531  and  _532
REMARK  219  A    between atoms: _532  and  _533
REMARK  220  A    between atoms: _533  and  _534
REMARK  221  A    between atoms: _534  and  _535
REMARK  222  A    between atoms: _539  and  _541
REMARK  223  A    between atoms: _541  and  _542
REMARK  224  A    between atoms: _541  and  _544
REMARK  225  A    between atoms: _544  and  _545
REMARK  226  A    between atoms: _555  and  _557
REMARK  227  A    between atoms: _557  and  _558
REMARK  228  A    between atoms: _561  and  _563
REMARK  229  A    between atoms: _563  and  _564
REMARK  230  A    between atoms: _566  and  _568
REMARK  231  A    between atoms: _568  and  _569
REMARK  232  A    between atoms: _568  and  _571
REMARK  233  A    between atoms: _571  and  _572
REMARK  234  A    between atoms: _572  and  _573
REMARK  235  A    between atoms: _576  and  _578
REMARK  236  A    between atoms: _578  and  _579
REMARK  237  A    between atoms: _578  and  _581
REMARK  238  A    between atoms: _581  and  _582
REMARK  239  A    between atoms: _582  and  _583
REMARK  240  A    between atoms: _583  and  _584
REMARK  241  A    between atoms: _593  and  _595
REMARK  242  A    between atoms: _595  and  _596
REMARK  243  A    between atoms: _595  and  _598
REMARK  244  A    between atoms: _598  and  _599
REMARK  245  A    between atoms: _602  and  _604
REMARK  246  A    between atoms: _604  and  _605
REMARK  247  A    between atoms: _604  and  _607
REMARK  248  A    between atoms: _607  and  _608
REMARK  249  A    between atoms: _613  and  _614
REMARK  250  A    between atoms: _616  and  _618
REMARK  251  A    between atoms: _618  and  _619
REMARK  252  A    between atoms: _618  and  _621
REMARK  253  A    between atoms: _621  and  _622
REMARK  254  A    between atoms: _625  and  _627
REMARK  255  A    between atoms: _627  and  _628
REMARK  256  A    between atoms: _627  and  _630
REMARK  257  A    between atoms: _630  and  _631
REMARK  258  A    between atoms: _634  and  _636
REMARK  259  A    between atoms: _636  and  _637
REMARK  260  A    between atoms: _636  and  _639
REMARK  261  A    between atoms: _639  and  _640
REMARK  262  A    between atoms: _641  and  _643
REMARK  263  A    between atoms: _643  and  _644
REMARK  264  A    between atoms: _643  and  _646
REMARK  265  A    between atoms: _649  and  _651
REMARK  266  A    between atoms: _651  and  _652
REMARK  267  A    between atoms: _651  and  _654
REMARK  268  A    between atoms: _654  and  _655
REMARK  269  A    between atoms: _655  and  _656
REMARK  270  A    between atoms: _659  and  _661
REMARK  271  A    between atoms: _661  and  _662
REMARK  272  A    between atoms: _661  and  _664
REMARK  273  A    between atoms: _664  and  _665
REMARK  274  A    between atoms: _675  and  _677
REMARK  275  A    between atoms: _677  and  _678
REMARK  276  A    between atoms: _677  and  _680
REMARK  277  A    between atoms: _680  and  _681
REMARK  278  A    between atoms: _684  and  _686
REMARK  279  A    between atoms: _686  and  _687
REMARK  280  A    between atoms: _686  and  _689
REMARK  281  A    between atoms: _689  and  _690
REMARK  282  A    between atoms: _695  and  _696
REMARK                            x       y       z     vdW  Elec       q    Type
REMARK                         _______ _______ _______ _____ _____    ______ ____
ROOT
ATOM      1  O   HOH     1      43.165  56.283  -1.859  0.00  0.00    +0.000 OA
ENDROOT
TORSDOF 0
REMARK  Name = ../refined-set-2016/1g7q/1g7q_pocket.pdb
REMARK  282 active torsions:
REMARK  status: ('A' for Active; 'I' for Inactive)
REMARK    1  A    between atoms: _1  and  _3
REMARK    2  A    between atoms: _3  and  _4
REMARK    3  A    between atoms: _3  and  _6
REMARK    4  A    between atoms: _6  and  _7
REMARK    5  A    between atoms: _10  and  _12
REMARK    6  A    between atoms: _12  and  _13
REMARK    7  A    between atoms: _12  and  _15
REMARK    8  A    between atoms: _15  and  _16
REMARK    9  A    between atoms: _16  and  _17
REMARK   10  A    between atoms: _17  and  _18
REMARK   11  A    between atoms: _27  and  _29
REMARK   12  A    between atoms: _29  and  _30
REMARK   13  A    between atoms: _29  and  _32
REMARK   14  A    between atoms: _32  and  _33
REMARK   15  A    between atoms: _38  and  _39
REMARK   16  A    between atoms: _41  and  _43
REMARK   17  A    between atoms: _43  and  _44
REMARK   18  A    between atoms: _43  and  _46
REMARK   19  A    between atoms: _46  and  _47
REMARK   20  A    between atoms: _53  and  _55
REMARK   21  A    between atoms: _55  and  _56
REMARK   22  A    between atoms: _55  and  _58
REMARK   23  A    between atoms: _61  and  _63
REMARK   24  A    between atoms: _63  and  _64
REMARK   25  A    between atoms: _63  and  _66
REMARK   26  A    between atoms: _66  and  _67
REMARK   27  A    between atoms: _72  and  _73
REMARK   28  A    between atoms: _75  and  _77
REMARK   29  A    between atoms: _77  and  _78
REMARK   30  A    between atoms: _77  and  _80
REMARK   31  A    between atoms: _80  and  _81
REMARK   32  A    between atoms: _81  and  _82
REMARK   33  A    between atoms: _85  and  _87
REMARK   34  A    between atoms: _87  and  _88
REMARK   35  A    between atoms: _87  and  _90
REMARK   36  A    between atoms: _93  and  _95
REMARK   37  A    between atoms: _95  and  _96
REMARK   38  A    between atoms: _98  and  _100
REMARK   39  A    between atoms: _100  and  _101
REMARK   40  A    between atoms: _100  and  _103
REMARK   41  A    between atoms: _106  and  _108
REMARK   42  A    between atoms: _108  and  _109
REMARK   43  A    between atoms: _108  and  _111
REMARK   44  A    between atoms: _111  and  _112
REMARK   45  A    between atoms: _118  and  _120
REMARK   46  A    between atoms: _120  and  _121
REMARK   47  A    between atoms: _120  and  _123
REMARK   48  A    between atoms: _126  and  _128
REMARK   49  A    between atoms: _128  and  _129
REMARK   50  A    between atoms: _128  and  _131
REMARK   51  A    between atoms: _131  and  _132
REMARK   52  A    between atoms: _137  and  _138
REMARK   53  A    between atoms: _140  and  _142
REMARK   54  A    between atoms: _142  and  _143
REMARK   55  A    between atoms: _142  and  _145
REMARK   56  A    between atoms: _145  and  _146
REMARK   57  A    between atoms: _146  and  _147
REMARK   58  A    between atoms: _149  and  _151
REMARK   59  A    between atoms: _151  and  _152
REMARK   60  A    between atoms: _151  and  _154
REMARK   61  A    between atoms: _154  and  _155
REMARK   62  A    between atoms: _160  and  _161
REMARK   63  A    between atoms: _163  and  _165
REMARK   64  A    between atoms: _165  and  _166
REMARK   65  A    between atoms: _165  and  _168
REMARK   66  A    between atoms: _168  and  _169
REMARK   67  A    between atoms: _169  and  _170
REMARK   68  A    between atoms: _170  and  _171
REMARK   69  A    between atoms: _180  and  _182
REMARK   70  A    between atoms: _182  and  _183
REMARK   71  A    between atoms: _182  and  _185
REMARK   72  A    between atoms: _185  and  _186
REMARK   73  A    between atoms: _186  and  _187
REMARK   74  A    between atoms: _190  and  _192
REMARK   75  A    between atoms: _192  and  _193
REMARK   76  A    between atoms: _192  and  _195
REMARK   77  A    between atoms: _195  and  _196
REMARK   78  A    between atoms: _196  and  _197
REMARK   79  A    between atoms: _202  and  _204
REMARK   80  A    between atoms: _204  and  _205
REMARK   81  A    between atoms: _204  and  _207
REMARK   82  A    between atoms: _207  and  _208
REMARK   83  A    between atoms: _208  and  _209
REMARK   84  A    between atoms: _209  and  _210
REMARK   85  A    between atoms: _210  and  _211
REMARK   86  A    between atoms: _215  and  _217
REMARK   87  A    between atoms: _217  and  _218
REMARK   88  A    between atoms: _221  and  _223
REMARK   89  A    between atoms: _223  and  _224
REMARK   90  A    between atoms: _226  and  _228
REMARK   91  A    between atoms: _228  and  _229
REMARK   92  A    between atoms: _228  and  _231
REMARK   93  A    between atoms: _231  and  _232
REMARK   94  A    between atoms: _237  and  _239
REMARK   95  A    between atoms: _239  and  _240
REMARK   96  A    between atoms: _239  and  _242
REMARK   97  A    between atoms: _242  and  _243
REMARK   98  A    between atoms: _243  and  _244
REMARK   99  A    between atoms: _247  and  _249
REMARK  100  A    between atoms: _249  and  _250
REMARK  101  A    between atoms: _249  and  _252
REMARK  102  A    between atoms: _252  and  _253
REMARK  103  A    between atoms: _253  and  _254
REMARK  104  A    between atoms: _259  and  _261
REMARK  105  A    between atoms: _261  and  _262
REMARK  106  A    between atoms: _261  and  _264
REMARK  107  A    between atoms: _264  and  _265
REMARK  108  A    between atoms: _267  and  _269
REMARK  109  A    between atoms: _269  and  _270
REMARK  110  A    between atoms: _269  and  _272
REMARK  111  A    between atoms: _272  and  _273
REMARK  112  A    between atoms: _279  and  _281
REMARK  113  A    between atoms: _281  and  _282
REMARK  114  A    between atoms: _281  and  _284
REMARK  115  A    between atoms: _284  and  _285
REMARK  116  A    between atoms: _285  and  _286
REMARK  117  A    between atoms: _286  and  _287
REMARK  118  A    between atoms: _296  and  _298
REMARK  119  A    between atoms: _298  and  _299
REMARK  120  A    between atoms: _298  and  _301
REMARK  121  A    between atoms: _304  and  _306
REMARK  122  A    between atoms: _306  and  _307
REMARK  123  A    between atoms: _306  and  _309
REMARK  124  A    between atoms: _309  and  _310
REMARK  125  A    between atoms: _313  and  _315
REMARK  126  A    between atoms: _315  and  _316
REMARK  127  A    between atoms: _315  and  _318
REMARK  128  A    between atoms: _318  and  _319
REMARK  129  A    between atoms: _322  and  _324
REMARK  130  A    between atoms: _324  and  _325
REMARK  131  A    between atoms: _324  and  _327
REMARK  132  A    between atoms: _327  and  _328
REMARK  133  A    between atoms: _331  and  _333
REMARK  134  A    between atoms: _333  and  _334
REMARK  135  A    between atoms: _333  and  _336
REMARK  136  A    between atoms: _336  and  _337
REMARK  137  A    between atoms: _340  and  _342
REMARK  138  A    between atoms: _342  and  _343
REMARK  139  A    between atoms: _342  and  _345
REMARK  140  A    between atoms: _345  and  _346
REMARK  141  A    between atoms: _351  and  _352
REMARK  142  A    between atoms: _354  and  _356
REMARK  143  A    between atoms: _356  and  _357
REMARK  144  A    between atoms: _356  and  _359
REMARK  145  A    between atoms: _359  and  _360
REMARK  146  A    between atoms: _363  and  _365
REMARK  147  A    between atoms: _365  and  _366
REMARK  148  A    between atoms: _365  and  _368
REMARK  149  A    between atoms: _371  and  _373
REMARK  150  A    between atoms: _373  and  _374
REMARK  151  A    between atoms: _373  and  _376
REMARK  152  A    between atoms: _376  and  _377
REMARK  153  A    between atoms: _380  and  _382
REMARK  154  A    between atoms: _382  and  _383
REMARK  155  A    between atoms: _382  and  _385
REMARK  156  A    between atoms: _385  and  _386
REMARK  157  A    between atoms: _388  and  _390
REMARK  158  A    between atoms: _390  and  _391
REMARK  159  A    between atoms: _393  and  _395
REMARK  160  A    between atoms: _395  and  _396
REMARK  161  A    between atoms: _395  and  _398
REMARK  162  A    between atoms: _398  and  _399
REMARK  163  A    between atoms: _399  and  _640
REMARK  164  A    between atoms: _400  and  _402
REMARK  165  A    between atoms: _402  and  _403
REMARK  166  A    between atoms: _402  and  _405
REMARK  167  A    between atoms: _405  and  _406
REMARK  168  A    between atoms: _411  and  _412
REMARK  169  A    between atoms: _414  and  _416
REMARK  170  A    between atoms: _416  and  _417
REMARK  171  A    between atoms: _416  and  _419
REMARK  172  A    between atoms: _419  and  _420
REMARK  173  A    between atoms: _420  and  _421
REMARK  174  A    between atoms: _426  and  _428
REMARK  175  A    between atoms: _428  and  _429
REMARK  176  A    between atoms: _428  and  _431
REMARK  177  A    between atoms: _431  and  _432
REMARK  178  A    between atoms: _437  and  _438
REMARK  179  A    between atoms: _440  and  _442
REMARK  180  A    between atoms: _442  and  _443
REMARK  181  A    between atoms: _442  and  _445
REMARK  182  A    between atoms: _445  and  _446
REMARK  183  A    between atoms: _451  and  _452
REMARK  184  A    between atoms: _454  and  _456
REMARK  185  A    between atoms: _456  and  _457
REMARK  186  A    between atoms: _456  and  _459
REMARK  187  A    between atoms: _459  and  _460
REMARK  188  A    between atoms: _463  and  _465
REMARK  189  A    between atoms: _465  and  _466
REMARK  190  A    between atoms: _469  and  _471
REMARK  191  A    between atoms: _471  and  _472
REMARK  192  A    between atoms: _475  and  _477
REMARK  193  A    between atoms: _477  and  _478
REMARK  194  A    between atoms: _477  and  _480
REMARK  195  A    between atoms: _480  and  _481
REMARK  196  A    between atoms: _484  and  _486
REMARK  197  A    between atoms: _486  and  _487
REMARK  198  A    between atoms: _486  and  _489
REMARK  199  A    between atoms: _489  and  _490
REMARK  200  A    between atoms: _493  and  _495
REMARK  201  A    between atoms: _495  and  _496
REMARK  202  A    between atoms: _495  and  _498
REMARK  203  A    between atoms: _498  and  _499
REMARK  204  A    between atoms: _502  and  _504
REMARK  205  A    between atoms: _504  and  _505
REMARK  206  A    between atoms: _504  and  _507
REMARK  207  A    between atoms: _507  and  _508
REMARK  208  A    between atoms: _508  and  _509
REMARK  209  A    between atoms: _509  and  _510
REMARK  210  A    between atoms: _510  and  _511
REMARK  211  A    between atoms: _515  and  _517
REMARK  212  A    between atoms: _517  and  _518
REMARK  213  A    between atoms: _517  and  _520
REMARK  214  A    between atoms: _520  and  _521
REMARK  215  A    between atoms: _526  and  _528
REMARK  216  A    between atoms: _528  and  _529
REMARK  217  A    between atoms: _528  and  _531
REMARK  218  A    between atoms: _531  and  _532
REMARK  219  A    between atoms: _532  and  _533
REMARK  220  A    between atoms: _533  and  _534
REMARK  221  A    between atoms: _534  and  _535
REMARK  222  A    between atoms: _539  and  _541
REMARK  223  A    between atoms: _541  and  _542
REMARK  224  A    between atoms: _541  and  _544
REMARK  225  A    between atoms: _544  and  _545
REMARK  226  A    between atoms: _555  and  _557
REMARK  227  A    between atoms: _557  and  _558
REMARK  228  A    between atoms: _561  and  _563
REMARK  229  A    between atoms: _563  and  _564
REMARK  230  A    between atoms: _566  and  _568
REMARK  231  A    between atoms: _568  and  _569
REMARK  232  A    between atoms: _568  and  _571
REMARK  233  A    between atoms: _571  and  _572
REMARK  234  A    between atoms: _572  and  _573
REMARK  235  A    between atoms: _576  and  _578
REMARK  236  A    between atoms: _578  and  _579
REMARK  237  A    between atoms: _578  and  _581
REMARK  238  A    between atoms: _581  and  _582
REMARK  239  A    between atoms: _582  and  _583
REMARK  240  A    between atoms: _583  and  _584
REMARK  241  A    between atoms: _593  and  _595
REMARK  242  A    between atoms: _595  and  _596
REMARK  243  A    between atoms: _595  and  _598
REMARK  244  A    between atoms: _598  and  _599
REMARK  245  A    between atoms: _602  and  _604
REMARK  246  A    between atoms: _604  and  _605
REMARK  247  A    between atoms: _604  and  _607
REMARK  248  A    between atoms: _607  and  _608
REMARK  249  A    between atoms: _613  and  _614
REMARK  250  A    between atoms: _616  and  _618
REMARK  251  A    between atoms: _618  and  _619
REMARK  252  A    between atoms: _618  and  _621
REMARK  253  A    between atoms: _621  and  _622
REMARK  254  A    between atoms: _625  and  _627
REMARK  255  A    between atoms: _627  and  _628
REMARK  256  A    between atoms: _627  and  _630
REMARK  257  A    between atoms: _630  and  _631
REMARK  258  A    between atoms: _634  and  _636
REMARK  259  A    between atoms: _636  and  _637
REMARK  260  A    between atoms: _636  and  _639
REMARK  261  A    between atoms: _639  and  _640
REMARK  262  A    between atoms: _641  and  _643
REMARK  263  A    between atoms: _643  and  _644
REMARK  264  A    between atoms: _643  and  _646
REMARK  265  A    between atoms: _649  and  _651
REMARK  266  A    between atoms: _651  and  _652
REMARK  267  A    between atoms: _651  and  _654
REMARK  268  A    between atoms: _654  and  _655
REMARK  269  A    between atoms: _655  and  _656
REMARK  270  A    between atoms: _659  and  _661
REMARK  271  A    between atoms: _661  and  _662
REMARK  272  A    between atoms: _661  and  _664
REMARK  273  A    between atoms: _664  and  _665
REMARK  274  A    between atoms: _675  and  _677
REMARK  275  A    between atoms: _677  and  _678
REMARK  276  A    between atoms: _677  and  _680
REMARK  277  A    between atoms: _680  and  _681
REMARK  278  A    between atoms: _684  and  _686
REMARK  279  A    between atoms: _686  and  _687
REMARK  280  A    between atoms: _686  and  _689
REMARK  281  A    between atoms: _689  and  _690
REMARK  282  A    between atoms: _695  and  _696
REMARK                            x       y       z     vdW  Elec       q    Type
REMARK                         _______ _______ _______ _____ _____    ______ ____
ROOT
ATOM      1  O   HOH     1      36.220  61.968 -15.530  0.00  0.00    +0.000 OA
ENDROOT
TORSDOF 0
