REMARK  Name = ../refined-set-2016/2w08/2w08_pocket.pdb
REMARK  127 active torsions:
REMARK  status: ('A' for Active; 'I' for Inactive)
REMARK    1  A    between atoms: _1  and  _3
REMARK    2  A    between atoms: _3  and  _4
REMARK    3  A    between atoms: _7  and  _9
REMARK    4  A    between atoms: _9  and  _10
REMARK    5  A    between atoms: _9  and  _12
REMARK    6  A    between atoms: _12  and  _13
REMARK    7  A    between atoms: _18  and  _19
REMARK    8  A    between atoms: _21  and  _23
REMARK    9  A    between atoms: _23  and  _24
REMARK   10  A    between atoms: _23  and  _26
REMARK   11  A    between atoms: _26  and  _27
REMARK   12  A    between atoms: _29  and  _31
REMARK   13  A    between atoms: _31  and  _32
REMARK   14  A    between atoms: _31  and  _34
REMARK   15  A    between atoms: _34  and  _35
REMARK   16  A    between atoms: _37  and  _39
REMARK   17  A    between atoms: _39  and  _40
REMARK   18  A    between atoms: _39  and  _42
REMARK   19  A    between atoms: _42  and  _43
REMARK   20  A    between atoms: _48  and  _50
REMARK   21  A    between atoms: _50  and  _51
REMARK   22  A    between atoms: _50  and  _53
REMARK   23  A    between atoms: _53  and  _54
REMARK   24  A    between atoms: _57  and  _59
REMARK   25  A    between atoms: _59  and  _60
REMARK   26  A    between atoms: _59  and  _62
REMARK   27  A    between atoms: _62  and  _63
REMARK   28  A    between atoms: _63  and  _64
REMARK   29  A    between atoms: _63  and  _65
REMARK   30  A    between atoms: _64  and  CA_265
REMARK   31  A    between atoms: _68  and  _70
REMARK   32  A    between atoms: _70  and  _71
REMARK   33  A    between atoms: _70  and  _73
REMARK   34  A    between atoms: _73  and  _74
REMARK   35  A    between atoms: _74  and  _75
REMARK   36  A    between atoms: _78  and  _80
REMARK   37  A    between atoms: _80  and  _81
REMARK   38  A    between atoms: _80  and  _83
REMARK   39  A    between atoms: _83  and  _84
REMARK   40  A    between atoms: _87  and  _89
REMARK   41  A    between atoms: _89  and  _90
REMARK   42  A    between atoms: _89  and  _92
REMARK   43  A    between atoms: _95  and  _97
REMARK   44  A    between atoms: _97  and  _98
REMARK   45  A    between atoms: _97  and  _100
REMARK   46  A    between atoms: _100  and  _101
REMARK   47  A    between atoms: _106  and  _107
REMARK   48  A    between atoms: _109  and  _111
REMARK   49  A    between atoms: _111  and  _112
REMARK   50  A    between atoms: _111  and  _114
REMARK   51  A    between atoms: _114  and  _115
REMARK   52  A    between atoms: _115  and  _116
REMARK   53  A    between atoms: _116  and  _117
REMARK   54  A    between atoms: _117  and  _118
REMARK   55  A    between atoms: _122  and  _124
REMARK   56  A    between atoms: _124  and  _125
REMARK   57  A    between atoms: _124  and  _127
REMARK   58  A    between atoms: _127  and  _128
REMARK   59  A    between atoms: _128  and  _129
REMARK   60  A    between atoms: _132  and  _134
REMARK   61  A    between atoms: _134  and  _135
REMARK   62  A    between atoms: _134  and  _137
REMARK   63  A    between atoms: _137  and  _138
REMARK   64  A    between atoms: _140  and  _142
REMARK   65  A    between atoms: _142  and  _143
REMARK   66  A    between atoms: _142  and  _145
REMARK   67  A    between atoms: _145  and  _146
REMARK   68  A    between atoms: _151  and  _152
REMARK   69  A    between atoms: _154  and  _156
REMARK   70  A    between atoms: _156  and  _157
REMARK   71  A    between atoms: _156  and  _159
REMARK   72  A    between atoms: _159  and  _160
REMARK   73  A    between atoms: _160  and  _161
REMARK   74  A    between atoms: _161  and  _162
REMARK   75  A    between atoms: _171  and  _173
REMARK   76  A    between atoms: _173  and  _174
REMARK   77  A    between atoms: _173  and  _176
REMARK   78  A    between atoms: _176  and  _177
REMARK   79  A    between atoms: _177  and  _178
REMARK   80  A    between atoms: _178  and  _179
REMARK   81  A    between atoms: _179  and  _180
REMARK   82  A    between atoms: _184  and  _186
REMARK   83  A    between atoms: _186  and  _187
REMARK   84  A    between atoms: _186  and  _189
REMARK   85  A    between atoms: _189  and  _190
REMARK   86  A    between atoms: _190  and  _191
REMARK   87  A    between atoms: _191  and  _192
REMARK   88  A    between atoms: _192  and  CA_266
REMARK   89  A    between atoms: _194  and  _196
REMARK   90  A    between atoms: _196  and  _197
REMARK   91  A    between atoms: _196  and  _199
REMARK   92  A    between atoms: _197  and  _198
REMARK   93  A    between atoms: _197  and  _206
REMARK   94  A    between atoms: _198  and  CA_265
REMARK   95  A    between atoms: _199  and  _200
REMARK   96  A    between atoms: _200  and  _201
REMARK   97  A    between atoms: _206  and  _208
REMARK   98  A    between atoms: _208  and  _209
REMARK   99  A    between atoms: _208  and  _211
REMARK  100  A    between atoms: _211  and  _212
REMARK  101  A    between atoms: _215  and  _217
REMARK  102  A    between atoms: _217  and  _218
REMARK  103  A    between atoms: _217  and  _220
REMARK  104  A    between atoms: _220  and  _221
REMARK  105  A    between atoms: _223  and  _225
REMARK  106  A    between atoms: _225  and  _226
REMARK  107  A    between atoms: _225  and  _228
REMARK  108  A    between atoms: _228  and  _229
REMARK  109  A    between atoms: _229  and  _230
REMARK  110  A    between atoms: _230  and  _231
REMARK  111  A    between atoms: _231  and  _232
REMARK  112  A    between atoms: _236  and  _238
REMARK  113  A    between atoms: _238  and  _239
REMARK  114  A    between atoms: _238  and  _241
REMARK  115  A    between atoms: _241  and  _242
REMARK  116  A    between atoms: _245  and  _247
REMARK  117  A    between atoms: _247  and  _248
REMARK  118  A    between atoms: _247  and  _250
REMARK  119  A    between atoms: _250  and  _251
REMARK  120  A    between atoms: _253  and  _255
REMARK  121  A    between atoms: _255  and  _256
REMARK  122  A    between atoms: _255  and  _258
REMARK  123  A    between atoms: _258  and  _259
REMARK  124  A    between atoms: _259  and  _260
REMARK  125  A    between atoms: _260  and  _261
REMARK  126  A    between atoms: _260  and  _262
REMARK  127  A    between atoms: _261  and  CA_266
REMARK                            x       y       z     vdW  Elec       q    Type
REMARK                         _______ _______ _______ _____ _____    ______ ____
ROOT
ATOM      1  CA  TYR A   2      12.389  10.700  50.131  0.00  0.00    +0.153 C 
ENDROOT
BRANCH   1   3
ATOM      2  C   ALA A   1      13.217  12.155  48.378  0.00  0.00    +0.238 C 
ATOM      3  N   TYR A   2      13.381  11.078  49.132  0.00  0.00    -0.297 N 
ATOM      4  H   TYR A   2      14.232  10.492  49.009  0.00  0.00    +0.150 HD
ATOM      5  O   ALA A   1      12.189  12.834  48.403  0.00  0.00    -0.274 OA
BRANCH   2   6
ATOM      6  CA  ALA A   1      14.387  12.519  47.459  0.00  0.00    +0.145 C 
ATOM      7  CB  ALA A   1      15.368  13.415  48.194  0.00  0.00    +0.028 C 
BRANCH   6   8
ATOM      8  N   ALA A   1      13.942  13.170  46.235  0.00  0.00    -0.238 NA
ATOM      9  H   ALA A   1      14.211  14.160  46.066  0.00  0.00    +0.142 HD
ENDBRANCH   6   8
ENDBRANCH   2   6
ENDBRANCH   1   3
BRANCH   1  10
ATOM     10  C   TYR A   2      12.938   9.808  51.228  0.00  0.00    +0.241 C 
ATOM     11  N   SER A   3      12.269   9.840  52.381  0.00  0.00    -0.296 N 
ATOM     12  H   SER A   3      11.463  10.491  52.474  0.00  0.00    +0.150 HD
ATOM     13  O   TYR A   2      13.929   9.105  51.039  0.00  0.00    -0.273 OA
BRANCH  11  14
ATOM     14  CA  SER A   3      12.623   9.000  53.511  0.00  0.00    +0.166 C 
BRANCH  14  15
ATOM     15  CB  SER A   3      11.914   7.650  53.434  0.00  0.00    +0.229 C 
ATOM     16  OG  SER A   3      10.719   7.585  53.155  0.00  0.00    -0.286 OA
ENDBRANCH  14  15
BRANCH  14  17
ATOM     17  C   SER A   3      12.254   9.708  54.817  0.00  0.00    +0.165 C 
BRANCH  17  18
ATOM     18  O   SER A   3      12.510   8.883  55.930  0.00  0.00    -0.380 OA
ATOM     19  H   SER A   3      11.973   8.054  55.855  0.00  0.00    +0.211 HD
ENDBRANCH  17  18
ENDBRANCH  14  17
ENDBRANCH  11  14
ENDBRANCH   1  10
BRANCH   1  20
ATOM     20  CB  TYR A   2      11.174  10.032  49.479  0.00  0.00    +0.055 C 
BRANCH  20  21
ATOM     21  CG  TYR A   2      11.480   8.831  48.601  0.00  0.00    -0.020 A 
ATOM     22  CD2 TYR A   2      11.608   7.552  49.149  0.00  0.00    -0.001 A 
ATOM     23  CE2 TYR A   2      11.859   6.449  48.339  0.00  0.00    +0.036 A 
ATOM     24  CZ  TYR A   2      11.970   6.620  46.974  0.00  0.00    +0.134 A 
ATOM     25  CE1 TYR A   2      11.837   7.875  46.410  0.00  0.00    +0.036 A 
ATOM     26  CD1 TYR A   2      11.591   8.970  47.227  0.00  0.00    -0.001 A 
BRANCH  24  27
ATOM     27  OH  TYR A   2      12.202   5.537  46.154  0.00  0.00    -0.506 OA
ATOM     28  HH  TYR A   2      12.273   4.717  46.704  0.00  0.00    +0.292 HD
ENDBRANCH  24  27
ENDBRANCH  20  21
ENDBRANCH   1  20
TORSDOF 11
REMARK  Name = ../refined-set-2016/2w08/2w08_pocket.pdb
REMARK  127 active torsions:
REMARK  status: ('A' for Active; 'I' for Inactive)
REMARK    1  A    between atoms: _1  and  _3
REMARK    2  A    between atoms: _3  and  _4
REMARK    3  A    between atoms: _7  and  _9
REMARK    4  A    between atoms: _9  and  _10
REMARK    5  A    between atoms: _9  and  _12
REMARK    6  A    between atoms: _12  and  _13
REMARK    7  A    between atoms: _18  and  _19
REMARK    8  A    between atoms: _21  and  _23
REMARK    9  A    between atoms: _23  and  _24
REMARK   10  A    between atoms: _23  and  _26
REMARK   11  A    between atoms: _26  and  _27
REMARK   12  A    between atoms: _29  and  _31
REMARK   13  A    between atoms: _31  and  _32
REMARK   14  A    between atoms: _31  and  _34
REMARK   15  A    between atoms: _34  and  _35
REMARK   16  A    between atoms: _37  and  _39
REMARK   17  A    between atoms: _39  and  _40
REMARK   18  A    between atoms: _39  and  _42
REMARK   19  A    between atoms: _42  and  _43
REMARK   20  A    between atoms: _48  and  _50
REMARK   21  A    between atoms: _50  and  _51
REMARK   22  A    between atoms: _50  and  _53
REMARK   23  A    between atoms: _53  and  _54
REMARK   24  A    between atoms: _57  and  _59
REMARK   25  A    between atoms: _59  and  _60
REMARK   26  A    between atoms: _59  and  _62
REMARK   27  A    between atoms: _62  and  _63
REMARK   28  A    between atoms: _63  and  _64
REMARK   29  A    between atoms: _63  and  _65
REMARK   30  A    between atoms: _64  and  CA_265
REMARK   31  A    between atoms: _68  and  _70
REMARK   32  A    between atoms: _70  and  _71
REMARK   33  A    between atoms: _70  and  _73
REMARK   34  A    between atoms: _73  and  _74
REMARK   35  A    between atoms: _74  and  _75
REMARK   36  A    between atoms: _78  and  _80
REMARK   37  A    between atoms: _80  and  _81
REMARK   38  A    between atoms: _80  and  _83
REMARK   39  A    between atoms: _83  and  _84
REMARK   40  A    between atoms: _87  and  _89
REMARK   41  A    between atoms: _89  and  _90
REMARK   42  A    between atoms: _89  and  _92
REMARK   43  A    between atoms: _95  and  _97
REMARK   44  A    between atoms: _97  and  _98
REMARK   45  A    between atoms: _97  and  _100
REMARK   46  A    between atoms: _100  and  _101
REMARK   47  A    between atoms: _106  and  _107
REMARK   48  A    between atoms: _109  and  _111
REMARK   49  A    between atoms: _111  and  _112
REMARK   50  A    between atoms: _111  and  _114
REMARK   51  A    between atoms: _114  and  _115
REMARK   52  A    between atoms: _115  and  _116
REMARK   53  A    between atoms: _116  and  _117
REMARK   54  A    between atoms: _117  and  _118
REMARK   55  A    between atoms: _122  and  _124
REMARK   56  A    between atoms: _124  and  _125
REMARK   57  A    between atoms: _124  and  _127
REMARK   58  A    between atoms: _127  and  _128
REMARK   59  A    between atoms: _128  and  _129
REMARK   60  A    between atoms: _132  and  _134
REMARK   61  A    between atoms: _134  and  _135
REMARK   62  A    between atoms: _134  and  _137
REMARK   63  A    between atoms: _137  and  _138
REMARK   64  A    between atoms: _140  and  _142
REMARK   65  A    between atoms: _142  and  _143
REMARK   66  A    between atoms: _142  and  _145
REMARK   67  A    between atoms: _145  and  _146
REMARK   68  A    between atoms: _151  and  _152
REMARK   69  A    between atoms: _154  and  _156
REMARK   70  A    between atoms: _156  and  _157
REMARK   71  A    between atoms: _156  and  _159
REMARK   72  A    between atoms: _159  and  _160
REMARK   73  A    between atoms: _160  and  _161
REMARK   74  A    between atoms: _161  and  _162
REMARK   75  A    between atoms: _171  and  _173
REMARK   76  A    between atoms: _173  and  _174
REMARK   77  A    between atoms: _173  and  _176
REMARK   78  A    between atoms: _176  and  _177
REMARK   79  A    between atoms: _177  and  _178
REMARK   80  A    between atoms: _178  and  _179
REMARK   81  A    between atoms: _179  and  _180
REMARK   82  A    between atoms: _184  and  _186
REMARK   83  A    between atoms: _186  and  _187
REMARK   84  A    between atoms: _186  and  _189
REMARK   85  A    between atoms: _189  and  _190
REMARK   86  A    between atoms: _190  and  _191
REMARK   87  A    between atoms: _191  and  _192
REMARK   88  A    between atoms: _192  and  CA_266
REMARK   89  A    between atoms: _194  and  _196
REMARK   90  A    between atoms: _196  and  _197
REMARK   91  A    between atoms: _196  and  _199
REMARK   92  A    between atoms: _197  and  _198
REMARK   93  A    between atoms: _197  and  _206
REMARK   94  A    between atoms: _198  and  CA_265
REMARK   95  A    between atoms: _199  and  _200
REMARK   96  A    between atoms: _200  and  _201
REMARK   97  A    between atoms: _206  and  _208
REMARK   98  A    between atoms: _208  and  _209
REMARK   99  A    between atoms: _208  and  _211
REMARK  100  A    between atoms: _211  and  _212
REMARK  101  A    between atoms: _215  and  _217
REMARK  102  A    between atoms: _217  and  _218
REMARK  103  A    between atoms: _217  and  _220
REMARK  104  A    between atoms: _220  and  _221
REMARK  105  A    between atoms: _223  and  _225
REMARK  106  A    between atoms: _225  and  _226
REMARK  107  A    between atoms: _225  and  _228
REMARK  108  A    between atoms: _228  and  _229
REMARK  109  A    between atoms: _229  and  _230
REMARK  110  A    between atoms: _230  and  _231
REMARK  111  A    between atoms: _231  and  _232
REMARK  112  A    between atoms: _236  and  _238
REMARK  113  A    between atoms: _238  and  _239
REMARK  114  A    between atoms: _238  and  _241
REMARK  115  A    between atoms: _241  and  _242
REMARK  116  A    between atoms: _245  and  _247
REMARK  117  A    between atoms: _247  and  _248
REMARK  118  A    between atoms: _247  and  _250
REMARK  119  A    between atoms: _250  and  _251
REMARK  120  A    between atoms: _253  and  _255
REMARK  121  A    between atoms: _255  and  _256
REMARK  122  A    between atoms: _255  and  _258
REMARK  123  A    between atoms: _258  and  _259
REMARK  124  A    between atoms: _259  and  _260
REMARK  125  A    between atoms: _260  and  _261
REMARK  126  A    between atoms: _260  and  _262
REMARK  127  A    between atoms: _261  and  CA_266
REMARK                            x       y       z     vdW  Elec       q    Type
REMARK                         _______ _______ _______ _____ _____    ______ ____
ROOT
ATOM      1  CA  SER A   1      12.813   7.497  60.029  0.00  0.00    +0.163 C 
ENDROOT
BRANCH   1   2
ATOM      2  N   SER A   1      12.350   6.382  59.188  0.00  0.00    -0.237 NA
ATOM      3  H   SER A   1      11.354   6.091  59.251  0.00  0.00    +0.142 HD
ENDBRANCH   1   2
BRANCH   1   4
ATOM      4  C   SER A   1      12.688   7.164  61.518  0.00  0.00    +0.227 C 
ATOM      5  O   SER A   1      11.585   6.941  62.029  0.00  0.00    -0.287 OA
ENDBRANCH   1   4
BRANCH   1   6
ATOM      6  CB  SER A   1      12.010   8.767  59.694  0.00  0.00    +0.162 C 
BRANCH   6   7
ATOM      7  OG  SER A   1      12.255   9.828  60.619  0.00  0.00    -0.380 OA
ATOM      8  H   SER A   1      13.217  10.062  60.604  0.00  0.00    +0.211 HD
ENDBRANCH   6   7
ENDBRANCH   1   6
TORSDOF 4
REMARK  Name = ../refined-set-2016/2w08/2w08_pocket.pdb
REMARK  127 active torsions:
REMARK  status: ('A' for Active; 'I' for Inactive)
REMARK    1  A    between atoms: _1  and  _3
REMARK    2  A    between atoms: _3  and  _4
REMARK    3  A    between atoms: _7  and  _9
REMARK    4  A    between atoms: _9  and  _10
REMARK    5  A    between atoms: _9  and  _12
REMARK    6  A    between atoms: _12  and  _13
REMARK    7  A    between atoms: _18  and  _19
REMARK    8  A    between atoms: _21  and  _23
REMARK    9  A    between atoms: _23  and  _24
REMARK   10  A    between atoms: _23  and  _26
REMARK   11  A    between atoms: _26  and  _27
REMARK   12  A    between atoms: _29  and  _31
REMARK   13  A    between atoms: _31  and  _32
REMARK   14  A    between atoms: _31  and  _34
REMARK   15  A    between atoms: _34  and  _35
REMARK   16  A    between atoms: _37  and  _39
REMARK   17  A    between atoms: _39  and  _40
REMARK   18  A    between atoms: _39  and  _42
REMARK   19  A    between atoms: _42  and  _43
REMARK   20  A    between atoms: _48  and  _50
REMARK   21  A    between atoms: _50  and  _51
REMARK   22  A    between atoms: _50  and  _53
REMARK   23  A    between atoms: _53  and  _54
REMARK   24  A    between atoms: _57  and  _59
REMARK   25  A    between atoms: _59  and  _60
REMARK   26  A    between atoms: _59  and  _62
REMARK   27  A    between atoms: _62  and  _63
REMARK   28  A    between atoms: _63  and  _64
REMARK   29  A    between atoms: _63  and  _65
REMARK   30  A    between atoms: _64  and  CA_265
REMARK   31  A    between atoms: _68  and  _70
REMARK   32  A    between atoms: _70  and  _71
REMARK   33  A    between atoms: _70  and  _73
REMARK   34  A    between atoms: _73  and  _74
REMARK   35  A    between atoms: _74  and  _75
REMARK   36  A    between atoms: _78  and  _80
REMARK   37  A    between atoms: _80  and  _81
REMARK   38  A    between atoms: _80  and  _83
REMARK   39  A    between atoms: _83  and  _84
REMARK   40  A    between atoms: _87  and  _89
REMARK   41  A    between atoms: _89  and  _90
REMARK   42  A    between atoms: _89  and  _92
REMARK   43  A    between atoms: _95  and  _97
REMARK   44  A    between atoms: _97  and  _98
REMARK   45  A    between atoms: _97  and  _100
REMARK   46  A    between atoms: _100  and  _101
REMARK   47  A    between atoms: _106  and  _107
REMARK   48  A    between atoms: _109  and  _111
REMARK   49  A    between atoms: _111  and  _112
REMARK   50  A    between atoms: _111  and  _114
REMARK   51  A    between atoms: _114  and  _115
REMARK   52  A    between atoms: _115  and  _116
REMARK   53  A    between atoms: _116  and  _117
REMARK   54  A    between atoms: _117  and  _118
REMARK   55  A    between atoms: _122  and  _124
REMARK   56  A    between atoms: _124  and  _125
REMARK   57  A    between atoms: _124  and  _127
REMARK   58  A    between atoms: _127  and  _128
REMARK   59  A    between atoms: _128  and  _129
REMARK   60  A    between atoms: _132  and  _134
REMARK   61  A    between atoms: _134  and  _135
REMARK   62  A    between atoms: _134  and  _137
REMARK   63  A    between atoms: _137  and  _138
REMARK   64  A    between atoms: _140  and  _142
REMARK   65  A    between atoms: _142  and  _143
REMARK   66  A    between atoms: _142  and  _145
REMARK   67  A    between atoms: _145  and  _146
REMARK   68  A    between atoms: _151  and  _152
REMARK   69  A    between atoms: _154  and  _156
REMARK   70  A    between atoms: _156  and  _157
REMARK   71  A    between atoms: _156  and  _159
REMARK   72  A    between atoms: _159  and  _160
REMARK   73  A    between atoms: _160  and  _161
REMARK   74  A    between atoms: _161  and  _162
REMARK   75  A    between atoms: _171  and  _173
REMARK   76  A    between atoms: _173  and  _174
REMARK   77  A    between atoms: _173  and  _176
REMARK   78  A    between atoms: _176  and  _177
REMARK   79  A    between atoms: _177  and  _178
REMARK   80  A    between atoms: _178  and  _179
REMARK   81  A    between atoms: _179  and  _180
REMARK   82  A    between atoms: _184  and  _186
REMARK   83  A    between atoms: _186  and  _187
REMARK   84  A    between atoms: _186  and  _189
REMARK   85  A    between atoms: _189  and  _190
REMARK   86  A    between atoms: _190  and  _191
REMARK   87  A    between atoms: _191  and  _192
REMARK   88  A    between atoms: _192  and  CA_266
REMARK   89  A    between atoms: _194  and  _196
REMARK   90  A    between atoms: _196  and  _197
REMARK   91  A    between atoms: _196  and  _199
REMARK   92  A    between atoms: _197  and  _198
REMARK   93  A    between atoms: _197  and  _206
REMARK   94  A    between atoms: _198  and  CA_265
REMARK   95  A    between atoms: _199  and  _200
REMARK   96  A    between atoms: _200  and  _201
REMARK   97  A    between atoms: _206  and  _208
REMARK   98  A    between atoms: _208  and  _209
REMARK   99  A    between atoms: _208  and  _211
REMARK  100  A    between atoms: _211  and  _212
REMARK  101  A    between atoms: _215  and  _217
REMARK  102  A    between atoms: _217  and  _218
REMARK  103  A    between atoms: _217  and  _220
REMARK  104  A    between atoms: _220  and  _221
REMARK  105  A    between atoms: _223  and  _225
REMARK  106  A    between atoms: _225  and  _226
REMARK  107  A    between atoms: _225  and  _228
REMARK  108  A    between atoms: _228  and  _229
REMARK  109  A    between atoms: _229  and  _230
REMARK  110  A    between atoms: _230  and  _231
REMARK  111  A    between atoms: _231  and  _232
REMARK  112  A    between atoms: _236  and  _238
REMARK  113  A    between atoms: _238  and  _239
REMARK  114  A    between atoms: _238  and  _241
REMARK  115  A    between atoms: _241  and  _242
REMARK  116  A    between atoms: _245  and  _247
REMARK  117  A    between atoms: _247  and  _248
REMARK  118  A    between atoms: _247  and  _250
REMARK  119  A    between atoms: _250  and  _251
REMARK  120  A    between atoms: _253  and  _255
REMARK  121  A    between atoms: _255  and  _256
REMARK  122  A    between atoms: _255  and  _258
REMARK  123  A    between atoms: _258  and  _259
REMARK  124  A    between atoms: _259  and  _260
REMARK  125  A    between atoms: _260  and  _261
REMARK  126  A    between atoms: _260  and  _262
REMARK  127  A    between atoms: _261  and  CA_266
REMARK                            x       y       z     vdW  Elec       q    Type
REMARK                         _______ _______ _______ _____ _____    ______ ____
ROOT
ATOM      1  CB  ASN A   1      13.622  11.083  65.557  0.00  0.00    +0.110 C 
ENDROOT
BRANCH   1   2
ATOM      2  CG  ASN A   1      14.197  11.782  64.336  0.00  0.00    +0.221 C 
ATOM      3  ND2 ASN A   1      13.831  13.050  64.152  0.00  0.00    -0.329 N 
ATOM      4 HD21 ASN A   1      13.189  13.509  64.829  0.00  0.00    +0.145 HD
ATOM      5 HD22 ASN A   1      14.187  13.580  63.331  0.00  0.00    +0.145 HD
ATOM      6  OD1 ASN A   1      14.955  11.191  63.564  0.00  0.00    -0.275 OA
ENDBRANCH   1   2
BRANCH   1   7
ATOM      7  CA  ASN A   1      14.363   9.785  65.911  0.00  0.00    +0.142 C 
BRANCH   7   8
ATOM      8  N   ASN A   1      13.834   8.650  65.156  0.00  0.00    -0.239 NA
ATOM      9  H   ASN A   1      12.824   8.417  65.241  0.00  0.00    +0.142 HD
ENDBRANCH   7   8
BRANCH   7  10
ATOM     10  C   ASN A   1      14.202   9.508  67.399  0.00  0.00    +0.225 C 
ATOM     11  O   ASN A   1      13.325   8.741  67.797  0.00  0.00    -0.287 OA
ENDBRANCH   7  10
ENDBRANCH   1   7
TORSDOF 4
REMARK  Name = ../refined-set-2016/2w08/2w08_pocket.pdb
REMARK  127 active torsions:
REMARK  status: ('A' for Active; 'I' for Inactive)
REMARK    1  A    between atoms: _1  and  _3
REMARK    2  A    between atoms: _3  and  _4
REMARK    3  A    between atoms: _7  and  _9
REMARK    4  A    between atoms: _9  and  _10
REMARK    5  A    between atoms: _9  and  _12
REMARK    6  A    between atoms: _12  and  _13
REMARK    7  A    between atoms: _18  and  _19
REMARK    8  A    between atoms: _21  and  _23
REMARK    9  A    between atoms: _23  and  _24
REMARK   10  A    between atoms: _23  and  _26
REMARK   11  A    between atoms: _26  and  _27
REMARK   12  A    between atoms: _29  and  _31
REMARK   13  A    between atoms: _31  and  _32
REMARK   14  A    between atoms: _31  and  _34
REMARK   15  A    between atoms: _34  and  _35
REMARK   16  A    between atoms: _37  and  _39
REMARK   17  A    between atoms: _39  and  _40
REMARK   18  A    between atoms: _39  and  _42
REMARK   19  A    between atoms: _42  and  _43
REMARK   20  A    between atoms: _48  and  _50
REMARK   21  A    between atoms: _50  and  _51
REMARK   22  A    between atoms: _50  and  _53
REMARK   23  A    between atoms: _53  and  _54
REMARK   24  A    between atoms: _57  and  _59
REMARK   25  A    between atoms: _59  and  _60
REMARK   26  A    between atoms: _59  and  _62
REMARK   27  A    between atoms: _62  and  _63
REMARK   28  A    between atoms: _63  and  _64
REMARK   29  A    between atoms: _63  and  _65
REMARK   30  A    between atoms: _64  and  CA_265
REMARK   31  A    between atoms: _68  and  _70
REMARK   32  A    between atoms: _70  and  _71
REMARK   33  A    between atoms: _70  and  _73
REMARK   34  A    between atoms: _73  and  _74
REMARK   35  A    between atoms: _74  and  _75
REMARK   36  A    between atoms: _78  and  _80
REMARK   37  A    between atoms: _80  and  _81
REMARK   38  A    between atoms: _80  and  _83
REMARK   39  A    between atoms: _83  and  _84
REMARK   40  A    between atoms: _87  and  _89
REMARK   41  A    between atoms: _89  and  _90
REMARK   42  A    between atoms: _89  and  _92
REMARK   43  A    between atoms: _95  and  _97
REMARK   44  A    between atoms: _97  and  _98
REMARK   45  A    between atoms: _97  and  _100
REMARK   46  A    between atoms: _100  and  _101
REMARK   47  A    between atoms: _106  and  _107
REMARK   48  A    between atoms: _109  and  _111
REMARK   49  A    between atoms: _111  and  _112
REMARK   50  A    between atoms: _111  and  _114
REMARK   51  A    between atoms: _114  and  _115
REMARK   52  A    between atoms: _115  and  _116
REMARK   53  A    between atoms: _116  and  _117
REMARK   54  A    between atoms: _117  and  _118
REMARK   55  A    between atoms: _122  and  _124
REMARK   56  A    between atoms: _124  and  _125
REMARK   57  A    between atoms: _124  and  _127
REMARK   58  A    between atoms: _127  and  _128
REMARK   59  A    between atoms: _128  and  _129
REMARK   60  A    between atoms: _132  and  _134
REMARK   61  A    between atoms: _134  and  _135
REMARK   62  A    between atoms: _134  and  _137
REMARK   63  A    between atoms: _137  and  _138
REMARK   64  A    between atoms: _140  and  _142
REMARK   65  A    between atoms: _142  and  _143
REMARK   66  A    between atoms: _142  and  _145
REMARK   67  A    between atoms: _145  and  _146
REMARK   68  A    between atoms: _151  and  _152
REMARK   69  A    between atoms: _154  and  _156
REMARK   70  A    between atoms: _156  and  _157
REMARK   71  A    between atoms: _156  and  _159
REMARK   72  A    between atoms: _159  and  _160
REMARK   73  A    between atoms: _160  and  _161
REMARK   74  A    between atoms: _161  and  _162
REMARK   75  A    between atoms: _171  and  _173
REMARK   76  A    between atoms: _173  and  _174
REMARK   77  A    between atoms: _173  and  _176
REMARK   78  A    between atoms: _176  and  _177
REMARK   79  A    between atoms: _177  and  _178
REMARK   80  A    between atoms: _178  and  _179
REMARK   81  A    between atoms: _179  and  _180
REMARK   82  A    between atoms: _184  and  _186
REMARK   83  A    between atoms: _186  and  _187
REMARK   84  A    between atoms: _186  and  _189
REMARK   85  A    between atoms: _189  and  _190
REMARK   86  A    between atoms: _190  and  _191
REMARK   87  A    between atoms: _191  and  _192
REMARK   88  A    between atoms: _192  and  CA_266
REMARK   89  A    between atoms: _194  and  _196
REMARK   90  A    between atoms: _196  and  _197
REMARK   91  A    between atoms: _196  and  _199
REMARK   92  A    between atoms: _197  and  _198
REMARK   93  A    between atoms: _197  and  _206
REMARK   94  A    between atoms: _198  and  CA_265
REMARK   95  A    between atoms: _199  and  _200
REMARK   96  A    between atoms: _200  and  _201
REMARK   97  A    between atoms: _206  and  _208
REMARK   98  A    between atoms: _208  and  _209
REMARK   99  A    between atoms: _208  and  _211
REMARK  100  A    between atoms: _211  and  _212
REMARK  101  A    between atoms: _215  and  _217
REMARK  102  A    between atoms: _217  and  _218
REMARK  103  A    between atoms: _217  and  _220
REMARK  104  A    between atoms: _220  and  _221
REMARK  105  A    between atoms: _223  and  _225
REMARK  106  A    between atoms: _225  and  _226
REMARK  107  A    between atoms: _225  and  _228
REMARK  108  A    between atoms: _228  and  _229
REMARK  109  A    between atoms: _229  and  _230
REMARK  110  A    between atoms: _230  and  _231
REMARK  111  A    between atoms: _231  and  _232
REMARK  112  A    between atoms: _236  and  _238
REMARK  113  A    between atoms: _238  and  _239
REMARK  114  A    between atoms: _238  and  _241
REMARK  115  A    between atoms: _241  and  _242
REMARK  116  A    between atoms: _245  and  _247
REMARK  117  A    between atoms: _247  and  _248
REMARK  118  A    between atoms: _247  and  _250
REMARK  119  A    between atoms: _250  and  _251
REMARK  120  A    between atoms: _253  and  _255
REMARK  121  A    between atoms: _255  and  _256
REMARK  122  A    between atoms: _255  and  _258
REMARK  123  A    between atoms: _258  and  _259
REMARK  124  A    between atoms: _259  and  _260
REMARK  125  A    between atoms: _260  and  _261
REMARK  126  A    between atoms: _260  and  _262
REMARK  127  A    between atoms: _261  and  CA_266
REMARK                            x       y       z     vdW  Elec       q    Type
REMARK                         _______ _______ _______ _____ _____    ______ ____
ROOT
ATOM      1  C   UNK A   2      12.086  14.390  61.256  0.00  0.00    +0.000 C 
ENDROOT
BRANCH   1   2
ATOM      2  N   SER A   1      11.750  15.617  61.645  0.00  0.00    +0.000 NA
ATOM      3  H   SER A   1      10.746  15.887  61.666  0.00  0.00    +0.000 HD
BRANCH   2   4
ATOM      4  CA  SER A   1      12.763  16.597  62.045  0.00  0.00    +0.000 C 
BRANCH   4   5
ATOM      5  C   SER A   1      12.654  16.908  63.537  0.00  0.00    +0.000 C 
ATOM      6  N   UNK A   2      11.617  16.370  64.164  0.00  0.00    +0.000 N 
ATOM      7  H   UNK A   2      10.886  15.880  63.610  0.00  0.00    +0.000 HD
ATOM      8  O   SER A   1      13.494  17.620  64.104  0.00  0.00    +0.000 OA
BRANCH   6   9
ATOM      9  C   UNK A   2      11.479  16.450  65.611  0.00  0.00    +0.000 C 
BRANCH   9  10
ATOM     10  C   UNK A   2      11.190  15.061  66.163  0.00  0.00    +0.000 C 
ATOM     11  O   UNK A   2      11.210  14.076  65.425  0.00  0.00    +0.000 OA
ENDBRANCH   9  10
BRANCH   9  12
ATOM     12  C   UNK A   2      10.355  17.421  65.988  0.00  0.00    +0.000 C 
BRANCH  12  13
ATOM     13  O   UNK A   2       9.087  16.887  65.637  0.00  0.00    +0.000 OA
ATOM     14  H   UNK A   2       8.378  17.530  65.889  0.00  0.00    +0.000 HD
ENDBRANCH  12  13
ENDBRANCH   9  12
ENDBRANCH   6   9
ENDBRANCH   4   5
BRANCH   4  15
ATOM     15  CB  SER A   1      12.650  17.881  61.225  0.00  0.00    +0.000 C 
BRANCH  15  16
ATOM     16  CG  SER A   1      13.373  17.786  59.911  0.00  0.00    +0.000 C 
ATOM     17  OD2 SER A   1      14.174  16.840  59.757  0.00  0.00    +0.000 OA
ATOM     18  OD1 SER A   1      13.153  18.640  59.027  0.00  0.00    +0.000 OA
ENDBRANCH  15  16
ENDBRANCH   4  15
ENDBRANCH   2   4
ENDBRANCH   1   2
BRANCH   1  19
ATOM     19  O   UNK A   2      13.234  14.062  61.015  0.00  0.00    +0.000 OA
BRANCH  19  20
ATOM     20 CA   UNK A   2      15.350  14.687  59.947  0.00  0.00    +0.000 Ca
BRANCH  20  21
ATOM     21  O   UNK A   2      17.087  13.032  60.269  0.00  0.00    +0.000 OA
BRANCH  21  22
ATOM     22  C   UNK A   2      18.314  13.083  60.193  0.00  0.00    +0.000 C 
BRANCH  22  23
ATOM     23  N   UNK A   2      18.949  13.913  59.370  0.00  0.00    +0.000 NA
ATOM     24  H   UNK A   2      19.989  13.921  59.340  0.00  0.00    +0.000 HD
ATOM     25  H   UNK A   2      18.406  14.554  58.757  0.00  0.00    +0.000 HD
ENDBRANCH  22  23
BRANCH  22  26
ATOM     26  C   UNK A   2      19.160  12.180  61.067  0.00  0.00    +0.000 C 
BRANCH  26  27
ATOM     27  C   UNK A   2      18.308  11.405  62.089  0.00  0.00    +0.000 C 
BRANCH  27  30
ATOM     28  C   SER A   1      18.182  13.073  63.858  0.00  0.00    +0.000 C 
ATOM     29  O   SER A   1      19.383  12.979  64.098  0.00  0.00    +0.000 OA
ATOM     30  N   UNK A   2      17.565  12.333  62.940  0.00  0.00    +0.000 N 
ATOM     31  H   UNK A   2      16.535  12.416  62.826  0.00  0.00    +0.000 HD
BRANCH  28  32
ATOM     32  CA  SER A   1      17.323  14.086  64.599  0.00  0.00    +0.000 C 
BRANCH  32  33
ATOM     33  N   SER A   1      17.855  14.262  65.938  0.00  0.00    +0.000 NA
ATOM     34  H   SER A   1      18.517  15.043  66.119  0.00  0.00    +0.000 HD
ENDBRANCH  32  33
BRANCH  32  35
ATOM     35  CB  SER A   1      17.345  15.419  63.843  0.00  0.00    +0.000 C 
BRANCH  35  36
ATOM     36  CG  SER A   1      16.577  15.362  62.541  0.00  0.00    +0.000 C 
ATOM     37  OD2 SER A   1      15.630  14.556  62.459  0.00  0.00    +0.000 OA
ATOM     38  OD1 SER A   1      16.904  16.122  61.601  0.00  0.00    +0.000 OA
ENDBRANCH  35  36
ENDBRANCH  32  35
ENDBRANCH  28  32
ENDBRANCH  27  30
BRANCH  27  39
ATOM     39  C   UNK A   2      19.153  10.428  62.895  0.00  0.00    +0.000 C 
ATOM     40  N   GLU A   3      18.565   9.880  63.957  0.00  0.00    +0.000 N 
ATOM     41  H   GLU A   3      17.576  10.119  64.172  0.00  0.00    +0.000 HD
ATOM     42  O   UNK A   2      20.306  10.170  62.563  0.00  0.00    +0.000 OA
BRANCH  40  43
ATOM     43  CA  GLU A   3      19.281   8.951  64.824  0.00  0.00    +0.000 C 
BRANCH  43  44
ATOM     44  C   GLU A   3      19.513   7.625  64.094  0.00  0.00    +0.000 C 
ATOM     45  O   GLU A   3      20.600   7.051  64.154  0.00  0.00    +0.000 OA
ENDBRANCH  43  44
BRANCH  43  46
ATOM     46  CB  GLU A   3      18.526   8.757  66.144  0.00  0.00    +0.000 C 
BRANCH  46  47
ATOM     47  CG  GLU A   3      19.231   7.865  67.148  0.00  0.00    +0.000 C 
BRANCH  47  48
ATOM     48  CD  GLU A   3      20.533   8.465  67.675  0.00  0.00    +0.000 C 
ATOM     49  OE2 GLU A   3      21.289   7.732  68.335  0.00  0.00    +0.000 OA
ATOM     50  OE1 GLU A   3      20.803   9.659  67.432  0.00  0.00    +0.000 OA
ENDBRANCH  47  48
ENDBRANCH  46  47
ENDBRANCH  43  46
ENDBRANCH  40  43
ENDBRANCH  27  39
ENDBRANCH  26  27
ENDBRANCH  22  26
ENDBRANCH  21  22
ENDBRANCH  20  21
ENDBRANCH  19  20
ENDBRANCH   1  19
BRANCH   1  51
ATOM     51  C   UNK A   2      10.972  13.372  61.142  0.00  0.00    +0.000 C 
BRANCH  51  52
ATOM     52  N   UNK A   2      11.103  12.574  59.912  0.00  0.00    +0.000 N 
ATOM     53  H   UNK A   2      11.510  11.618  59.963  0.00  0.00    +0.000 HD
ATOM     54  C   UNK A   2      10.710  13.055  58.739  0.00  0.00    +0.000 C 
ATOM     55  O   UNK A   2      10.201  14.167  58.616  0.00  0.00    +0.000 OA
BRANCH  54  56
ATOM     56  C   UNK A   2      10.890  12.158  57.509  0.00  0.00    +0.000 C 
BRANCH  56  57
ATOM     57  N   UNK A   2       9.585  12.021  56.896  0.00  0.00    +0.000 NA
ATOM     58  H   UNK A   2       9.234  12.786  56.286  0.00  0.00    +0.000 HD
ENDBRANCH  56  57
BRANCH  56  59
ATOM     59  C   UNK A   2      11.837  12.816  56.502  0.00  0.00    +0.000 C 
BRANCH  59  60
ATOM     60  C   UNK A   2      13.309  12.491  56.706  0.00  0.00    +0.000 C 
BRANCH  60  61
ATOM     61  C   UNK A   2      13.908  13.269  57.839  0.00  0.00    +0.000 C 
ATOM     62  O   UNK A   2      14.618  12.688  58.673  0.00  0.00    +0.000 OA
BRANCH  61  63
ATOM     63  O   UNK A   2      13.655  14.486  57.901  0.00  0.00    +0.000 OA
BRANCH  63  64
ATOM     64 CA   UNK A   2      13.450  16.768  57.245  0.00  0.00    +0.000 Ca
BRANCH  64  65
ATOM     65  O   UNK A   2      12.740  15.850  55.129  0.00  0.00    +0.000 OA
BRANCH  65  66
ATOM     66  C   UNK A   2      13.298  15.860  54.039  0.00  0.00    +0.000 C 
BRANCH  66  67
ATOM     67  N   UNK A   2      14.594  16.122  53.898  0.00  0.00    +0.000 NA
ATOM     68  H   UNK A   2      15.177  16.330  54.734  0.00  0.00    +0.000 HD
ATOM     69  H   UNK A   2      15.025  16.119  52.952  0.00  0.00    +0.000 HD
ENDBRANCH  66  67
BRANCH  66  70
ATOM     70  C   UNK A   2      12.522  15.572  52.778  0.00  0.00    +0.000 C 
BRANCH  70  71
ATOM     71  C   UNK A   2      11.494  14.479  52.980  0.00  0.00    +0.000 C 
BRANCH  71  72
ATOM     72  C   UNK A   2      10.650  14.207  51.735  0.00  0.00    +0.000 C 
BRANCH  72  73
ATOM     73  N   UNK A   2       9.930  15.415  51.349  0.00  0.00    +0.000 N 
ATOM     74  H   UNK A   2       9.248  15.830  52.016  0.00  0.00    +0.000 HD
ATOM     75  C   SER A   1      10.119  16.005  50.167  0.00  0.00    +0.000 C 
ATOM     76  O   SER A   1      10.937  15.605  49.338  0.00  0.00    +0.000 OA
BRANCH  75  77
ATOM     77  CA  SER A   1       9.247  17.226  49.859  0.00  0.00    +0.000 C 
BRANCH  77  78
ATOM     78  N   SER A   1       8.288  17.521  50.923  0.00  0.00    +0.000 NA
ATOM     79  H   SER A   1       8.483  18.300  51.583  0.00  0.00    +0.000 HD
ENDBRANCH  77  78
BRANCH  77  80
ATOM     80  CB  SER A   1      10.140  18.442  49.566  0.00  0.00    +0.000 C 
BRANCH  80  81
ATOM     81  OG  SER A   1      11.017  18.706  50.648  0.00  0.00    +0.000 OA
ATOM     82  H   SER A   1      10.487  18.892  51.463  0.00  0.00    +0.000 HD
ENDBRANCH  80  81
ENDBRANCH  77  80
ENDBRANCH  75  77
ENDBRANCH  72  73
BRANCH  72  83
ATOM     83  C   UNK A   2       9.686  13.053  52.005  0.00  0.00    +0.000 C 
ATOM     84  O   UNK A   2      10.105  11.960  52.403  0.00  0.00    +0.000 OA
ENDBRANCH  72  83
ENDBRANCH  71  72
ENDBRANCH  70  71
ENDBRANCH  66  70
ENDBRANCH  65  66
ENDBRANCH  64  65
ENDBRANCH  63  64
ENDBRANCH  61  63
ENDBRANCH  60  61
ENDBRANCH  59  60
ENDBRANCH  56  59
ENDBRANCH  54  56
ENDBRANCH  51  52
BRANCH  51  85
ATOM     85  C   UNK A   2      11.045  12.479  62.379  0.00  0.00    +0.000 C 
BRANCH  85  86
ATOM     86  C   UNK A   2       9.905  11.504  62.548  0.00  0.00    +0.000 C 
BRANCH  86  87
ATOM     87  C   UNK A   2      10.160  10.559  63.694  0.00  0.00    +0.000 C 
ATOM     88  O   UNK A   2       9.846  10.861  64.851  0.00  0.00    +0.000 OA
ATOM     89  N   UNK A   2      10.749   9.404  63.386  0.00  0.00    +0.000 N 
ATOM     90  H   UNK A   2      10.963   8.714  64.134  0.00  0.00    +0.000 HD
ATOM     91  H   UNK A   2      10.995   9.193  62.398  0.00  0.00    +0.000 HD
ENDBRANCH  86  87
ENDBRANCH  85  86
ENDBRANCH  51  85
ENDBRANCH   1  51
TORSDOF 51
REMARK  Name = ../refined-set-2016/2w08/2w08_pocket.pdb
REMARK  127 active torsions:
REMARK  status: ('A' for Active; 'I' for Inactive)
REMARK    1  A    between atoms: _1  and  _3
REMARK    2  A    between atoms: _3  and  _4
REMARK    3  A    between atoms: _7  and  _9
REMARK    4  A    between atoms: _9  and  _10
REMARK    5  A    between atoms: _9  and  _12
REMARK    6  A    between atoms: _12  and  _13
REMARK    7  A    between atoms: _18  and  _19
REMARK    8  A    between atoms: _21  and  _23
REMARK    9  A    between atoms: _23  and  _24
REMARK   10  A    between atoms: _23  and  _26
REMARK   11  A    between atoms: _26  and  _27
REMARK   12  A    between atoms: _29  and  _31
REMARK   13  A    between atoms: _31  and  _32
REMARK   14  A    between atoms: _31  and  _34
REMARK   15  A    between atoms: _34  and  _35
REMARK   16  A    between atoms: _37  and  _39
REMARK   17  A    between atoms: _39  and  _40
REMARK   18  A    between atoms: _39  and  _42
REMARK   19  A    between atoms: _42  and  _43
REMARK   20  A    between atoms: _48  and  _50
REMARK   21  A    between atoms: _50  and  _51
REMARK   22  A    between atoms: _50  and  _53
REMARK   23  A    between atoms: _53  and  _54
REMARK   24  A    between atoms: _57  and  _59
REMARK   25  A    between atoms: _59  and  _60
REMARK   26  A    between atoms: _59  and  _62
REMARK   27  A    between atoms: _62  and  _63
REMARK   28  A    between atoms: _63  and  _64
REMARK   29  A    between atoms: _63  and  _65
REMARK   30  A    between atoms: _64  and  CA_265
REMARK   31  A    between atoms: _68  and  _70
REMARK   32  A    between atoms: _70  and  _71
REMARK   33  A    between atoms: _70  and  _73
REMARK   34  A    between atoms: _73  and  _74
REMARK   35  A    between atoms: _74  and  _75
REMARK   36  A    between atoms: _78  and  _80
REMARK   37  A    between atoms: _80  and  _81
REMARK   38  A    between atoms: _80  and  _83
REMARK   39  A    between atoms: _83  and  _84
REMARK   40  A    between atoms: _87  and  _89
REMARK   41  A    between atoms: _89  and  _90
REMARK   42  A    between atoms: _89  and  _92
REMARK   43  A    between atoms: _95  and  _97
REMARK   44  A    between atoms: _97  and  _98
REMARK   45  A    between atoms: _97  and  _100
REMARK   46  A    between atoms: _100  and  _101
REMARK   47  A    between atoms: _106  and  _107
REMARK   48  A    between atoms: _109  and  _111
REMARK   49  A    between atoms: _111  and  _112
REMARK   50  A    between atoms: _111  and  _114
REMARK   51  A    between atoms: _114  and  _115
REMARK   52  A    between atoms: _115  and  _116
REMARK   53  A    between atoms: _116  and  _117
REMARK   54  A    between atoms: _117  and  _118
REMARK   55  A    between atoms: _122  and  _124
REMARK   56  A    between atoms: _124  and  _125
REMARK   57  A    between atoms: _124  and  _127
REMARK   58  A    between atoms: _127  and  _128
REMARK   59  A    between atoms: _128  and  _129
REMARK   60  A    between atoms: _132  and  _134
REMARK   61  A    between atoms: _134  and  _135
REMARK   62  A    between atoms: _134  and  _137
REMARK   63  A    between atoms: _137  and  _138
REMARK   64  A    between atoms: _140  and  _142
REMARK   65  A    between atoms: _142  and  _143
REMARK   66  A    between atoms: _142  and  _145
REMARK   67  A    between atoms: _145  and  _146
REMARK   68  A    between atoms: _151  and  _152
REMARK   69  A    between atoms: _154  and  _156
REMARK   70  A    between atoms: _156  and  _157
REMARK   71  A    between atoms: _156  and  _159
REMARK   72  A    between atoms: _159  and  _160
REMARK   73  A    between atoms: _160  and  _161
REMARK   74  A    between atoms: _161  and  _162
REMARK   75  A    between atoms: _171  and  _173
REMARK   76  A    between atoms: _173  and  _174
REMARK   77  A    between atoms: _173  and  _176
REMARK   78  A    between atoms: _176  and  _177
REMARK   79  A    between atoms: _177  and  _178
REMARK   80  A    between atoms: _178  and  _179
REMARK   81  A    between atoms: _179  and  _180
REMARK   82  A    between atoms: _184  and  _186
REMARK   83  A    between atoms: _186  and  _187
REMARK   84  A    between atoms: _186  and  _189
REMARK   85  A    between atoms: _189  and  _190
REMARK   86  A    between atoms: _190  and  _191
REMARK   87  A    between atoms: _191  and  _192
REMARK   88  A    between atoms: _192  and  CA_266
REMARK   89  A    between atoms: _194  and  _196
REMARK   90  A    between atoms: _196  and  _197
REMARK   91  A    between atoms: _196  and  _199
REMARK   92  A    between atoms: _197  and  _198
REMARK   93  A    between atoms: _197  and  _206
REMARK   94  A    between atoms: _198  and  CA_265
REMARK   95  A    between atoms: _199  and  _200
REMARK   96  A    between atoms: _200  and  _201
REMARK   97  A    between atoms: _206  and  _208
REMARK   98  A    between atoms: _208  and  _209
REMARK   99  A    between atoms: _208  and  _211
REMARK  100  A    between atoms: _211  and  _212
REMARK  101  A    between atoms: _215  and  _217
REMARK  102  A    between atoms: _217  and  _218
REMARK  103  A    between atoms: _217  and  _220
REMARK  104  A    between atoms: _220  and  _221
REMARK  105  A    between atoms: _223  and  _225
REMARK  106  A    between atoms: _225  and  _226
REMARK  107  A    between atoms: _225  and  _228
REMARK  108  A    between atoms: _228  and  _229
REMARK  109  A    between atoms: _229  and  _230
REMARK  110  A    between atoms: _230  and  _231
REMARK  111  A    between atoms: _231  and  _232
REMARK  112  A    between atoms: _236  and  _238
REMARK  113  A    between atoms: _238  and  _239
REMARK  114  A    between atoms: _238  and  _241
REMARK  115  A    between atoms: _241  and  _242
REMARK  116  A    between atoms: _245  and  _247
REMARK  117  A    between atoms: _247  and  _248
REMARK  118  A    between atoms: _247  and  _250
REMARK  119  A    between atoms: _250  and  _251
REMARK  120  A    between atoms: _253  and  _255
REMARK  121  A    between atoms: _255  and  _256
REMARK  122  A    between atoms: _255  and  _258
REMARK  123  A    between atoms: _258  and  _259
REMARK  124  A    between atoms: _259  and  _260
REMARK  125  A    between atoms: _260  and  _261
REMARK  126  A    between atoms: _260  and  _262
REMARK  127  A    between atoms: _261  and  CA_266
REMARK                            x       y       z     vdW  Elec       q    Type
REMARK                         _______ _______ _______ _____ _____    ______ ____
ROOT
ATOM      1  CA  TYR A   3      16.923   7.903  52.984  0.00  0.00    +0.153 C 
ENDROOT
BRANCH   1   4
ATOM      2  C   VAL A   2      16.576   6.178  54.680  0.00  0.00    +0.241 C 
ATOM      3  O   VAL A   2      15.357   6.350  54.709  0.00  0.00    -0.273 OA
ATOM      4  N   TYR A   3      17.375   6.781  53.803  0.00  0.00    -0.297 N 
ATOM      5  H   TYR A   3      18.353   6.443  53.697  0.00  0.00    +0.150 HD
BRANCH   2   6
ATOM      6  CA  VAL A   2      17.250   5.252  55.677  0.00  0.00    +0.148 C 
BRANCH   6   9
ATOM      7  C   LEU A   1      17.915   6.385  57.716  0.00  0.00    +0.238 C 
ATOM      8  O   LEU A   1      19.106   6.394  57.401  0.00  0.00    -0.274 OA
ATOM      9  N   VAL A   2      16.971   5.777  57.004  0.00  0.00    -0.297 N 
ATOM     10  H   VAL A   2      16.016   5.675  57.403  0.00  0.00    +0.150 HD
BRANCH   7  11
ATOM     11  CA  LEU A   1      17.460   7.080  58.989  0.00  0.00    +0.145 C 
BRANCH  11  12
ATOM     12  N   LEU A   1      18.287   6.647  60.112  0.00  0.00    -0.238 NA
ATOM     13  H   LEU A   1      19.318   6.572  59.998  0.00  0.00    +0.142 HD
ENDBRANCH  11  12
BRANCH  11  14
ATOM     14  CB  LEU A   1      17.553   8.609  58.808  0.00  0.00    +0.026 C 
BRANCH  14  15
ATOM     15  CG  LEU A   1      16.951   9.254  57.551  0.00  0.00    +0.002 C 
ATOM     16  CD2 LEU A   1      17.287  10.730  57.533  0.00  0.00    +0.000 C 
ATOM     17  CD1 LEU A   1      15.427   9.048  57.462  0.00  0.00    +0.000 C 
ENDBRANCH  14  15
ENDBRANCH  11  14
ENDBRANCH   7  11
ENDBRANCH   6   9
BRANCH   6  18
ATOM     18  CB  VAL A   2      16.717   3.826  55.515  0.00  0.00    +0.027 C 
ATOM     19  CG2 VAL A   2      17.293   2.934  56.595  0.00  0.00    +0.002 C 
ATOM     20  CG1 VAL A   2      17.083   3.288  54.126  0.00  0.00    +0.002 C 
ENDBRANCH   6  18
ENDBRANCH   2   6
ENDBRANCH   1   4
BRANCH   1  21
ATOM     21  C   TYR A   3      17.376   7.692  51.549  0.00  0.00    +0.241 C 
ATOM     22  O   TYR A   3      18.468   7.199  51.312  0.00  0.00    -0.273 OA
ATOM     23  N   LYS A   4      16.542   8.066  50.588  0.00  0.00    -0.297 N 
ATOM     24  H   LYS A   4      15.640   8.518  50.840  0.00  0.00    +0.150 HD
BRANCH  23  25
ATOM     25  CA  LYS A   4      16.869   7.854  49.187  0.00  0.00    +0.149 C 
BRANCH  25  26
ATOM     26  C   LYS A   4      16.979   9.208  48.507  0.00  0.00    +0.241 C 
ATOM     27  N   GLU A   5      18.206   9.676  48.275  0.00  0.00    -0.298 N 
ATOM     28  H   GLU A   5      19.034   9.091  48.505  0.00  0.00    +0.150 HD
ATOM     29  O   LYS A   4      15.960   9.828  48.211  0.00  0.00    -0.273 OA
BRANCH  27  30
ATOM     30  CA  GLU A   5      18.395  11.011  47.697  0.00  0.00    +0.137 C 
BRANCH  30  31
ATOM     31  C   GLU A   5      17.998  11.086  46.225  0.00  0.00    +0.227 C 
ATOM     32  O   GLU A   5      17.444  12.087  45.763  0.00  0.00    -0.286 OA
ENDBRANCH  30  31
BRANCH  30  33
ATOM     33  CB  GLU A   5      19.839  11.483  47.886  0.00  0.00    +0.039 C 
BRANCH  33  34
ATOM     34  CG  GLU A   5      19.979  12.585  48.909  0.00  0.00    +0.116 C 
BRANCH  34  35
ATOM     35  CD  GLU A   5      19.337  13.880  48.429  0.00  0.00    +0.365 C 
ATOM     36  OE2 GLU A   5      19.007  14.738  49.273  0.00  0.00    -0.246 OA
ATOM     37  OE1 GLU A   5      19.166  14.040  47.201  0.00  0.00    -0.246 OA
ENDBRANCH  34  35
ENDBRANCH  33  34
ENDBRANCH  30  33
ENDBRANCH  27  30
ENDBRANCH  25  26
BRANCH  25  38
ATOM     38  CB  LYS A   4      15.764   7.018  48.522  0.00  0.00    +0.029 C 
BRANCH  38  39
ATOM     39  CG  LYS A   4      16.046   6.637  47.084  0.00  0.00    +0.000 C 
BRANCH  39  40
ATOM     40  CD  LYS A   4      16.691   5.282  46.990  0.00  0.00    -0.024 C 
BRANCH  40  41
ATOM     41  CE  LYS A   4      16.972   4.906  45.532  0.00  0.00    -0.086 C 
BRANCH  41  42
ATOM     42  NZ  LYS A   4      15.732   4.835  44.731  0.00  0.00    +0.380 N 
ATOM     43  HZ1 LYS A   4      15.099   4.116  45.137  0.00  0.00    -0.089 HD
ATOM     44  HZ2 LYS A   4      15.259   5.761  44.743  0.00  0.00    -0.089 HD
ATOM     45  HZ3 LYS A   4      15.968   4.578  43.751  0.00  0.00    -0.089 HD
ENDBRANCH  41  42
ENDBRANCH  40  41
ENDBRANCH  39  40
ENDBRANCH  38  39
ENDBRANCH  25  38
ENDBRANCH  23  25
ENDBRANCH   1  21
BRANCH   1  46
ATOM     46  CB  TYR A   3      17.539   9.194  53.541  0.00  0.00    +0.055 C 
BRANCH  46  47
ATOM     47  CG  TYR A   3      16.962  10.480  53.000  0.00  0.00    -0.020 A 
ATOM     48  CD2 TYR A   3      15.727  10.947  53.444  0.00  0.00    -0.001 A 
ATOM     49  CE2 TYR A   3      15.203  12.125  52.973  0.00  0.00    +0.036 A 
ATOM     50  CZ  TYR A   3      15.911  12.867  52.059  0.00  0.00    +0.134 A 
ATOM     51  CE1 TYR A   3      17.142  12.439  51.601  0.00  0.00    +0.036 A 
ATOM     52  CD1 TYR A   3      17.662  11.245  52.078  0.00  0.00    -0.001 A 
BRANCH  50  53
ATOM     53  OH  TYR A   3      15.372  14.044  51.596  0.00  0.00    -0.506 OA
ATOM     54  HH  TYR A   3      15.981  14.793  51.815  0.00  0.00    +0.292 HD
ENDBRANCH  50  53
ENDBRANCH  46  47
ENDBRANCH   1  46
TORSDOF 24
REMARK  Name = ../refined-set-2016/2w08/2w08_pocket.pdb
REMARK  127 active torsions:
REMARK  status: ('A' for Active; 'I' for Inactive)
REMARK    1  A    between atoms: _1  and  _3
REMARK    2  A    between atoms: _3  and  _4
REMARK    3  A    between atoms: _7  and  _9
REMARK    4  A    between atoms: _9  and  _10
REMARK    5  A    between atoms: _9  and  _12
REMARK    6  A    between atoms: _12  and  _13
REMARK    7  A    between atoms: _18  and  _19
REMARK    8  A    between atoms: _21  and  _23
REMARK    9  A    between atoms: _23  and  _24
REMARK   10  A    between atoms: _23  and  _26
REMARK   11  A    between atoms: _26  and  _27
REMARK   12  A    between atoms: _29  and  _31
REMARK   13  A    between atoms: _31  and  _32
REMARK   14  A    between atoms: _31  and  _34
REMARK   15  A    between atoms: _34  and  _35
REMARK   16  A    between atoms: _37  and  _39
REMARK   17  A    between atoms: _39  and  _40
REMARK   18  A    between atoms: _39  and  _42
REMARK   19  A    between atoms: _42  and  _43
REMARK   20  A    between atoms: _48  and  _50
REMARK   21  A    between atoms: _50  and  _51
REMARK   22  A    between atoms: _50  and  _53
REMARK   23  A    between atoms: _53  and  _54
REMARK   24  A    between atoms: _57  and  _59
REMARK   25  A    between atoms: _59  and  _60
REMARK   26  A    between atoms: _59  and  _62
REMARK   27  A    between atoms: _62  and  _63
REMARK   28  A    between atoms: _63  and  _64
REMARK   29  A    between atoms: _63  and  _65
REMARK   30  A    between atoms: _64  and  CA_265
REMARK   31  A    between atoms: _68  and  _70
REMARK   32  A    between atoms: _70  and  _71
REMARK   33  A    between atoms: _70  and  _73
REMARK   34  A    between atoms: _73  and  _74
REMARK   35  A    between atoms: _74  and  _75
REMARK   36  A    between atoms: _78  and  _80
REMARK   37  A    between atoms: _80  and  _81
REMARK   38  A    between atoms: _80  and  _83
REMARK   39  A    between atoms: _83  and  _84
REMARK   40  A    between atoms: _87  and  _89
REMARK   41  A    between atoms: _89  and  _90
REMARK   42  A    between atoms: _89  and  _92
REMARK   43  A    between atoms: _95  and  _97
REMARK   44  A    between atoms: _97  and  _98
REMARK   45  A    between atoms: _97  and  _100
REMARK   46  A    between atoms: _100  and  _101
REMARK   47  A    between atoms: _106  and  _107
REMARK   48  A    between atoms: _109  and  _111
REMARK   49  A    between atoms: _111  and  _112
REMARK   50  A    between atoms: _111  and  _114
REMARK   51  A    between atoms: _114  and  _115
REMARK   52  A    between atoms: _115  and  _116
REMARK   53  A    between atoms: _116  and  _117
REMARK   54  A    between atoms: _117  and  _118
REMARK   55  A    between atoms: _122  and  _124
REMARK   56  A    between atoms: _124  and  _125
REMARK   57  A    between atoms: _124  and  _127
REMARK   58  A    between atoms: _127  and  _128
REMARK   59  A    between atoms: _128  and  _129
REMARK   60  A    between atoms: _132  and  _134
REMARK   61  A    between atoms: _134  and  _135
REMARK   62  A    between atoms: _134  and  _137
REMARK   63  A    between atoms: _137  and  _138
REMARK   64  A    between atoms: _140  and  _142
REMARK   65  A    between atoms: _142  and  _143
REMARK   66  A    between atoms: _142  and  _145
REMARK   67  A    between atoms: _145  and  _146
REMARK   68  A    between atoms: _151  and  _152
REMARK   69  A    between atoms: _154  and  _156
REMARK   70  A    between atoms: _156  and  _157
REMARK   71  A    between atoms: _156  and  _159
REMARK   72  A    between atoms: _159  and  _160
REMARK   73  A    between atoms: _160  and  _161
REMARK   74  A    between atoms: _161  and  _162
REMARK   75  A    between atoms: _171  and  _173
REMARK   76  A    between atoms: _173  and  _174
REMARK   77  A    between atoms: _173  and  _176
REMARK   78  A    between atoms: _176  and  _177
REMARK   79  A    between atoms: _177  and  _178
REMARK   80  A    between atoms: _178  and  _179
REMARK   81  A    between atoms: _179  and  _180
REMARK   82  A    between atoms: _184  and  _186
REMARK   83  A    between atoms: _186  and  _187
REMARK   84  A    between atoms: _186  and  _189
REMARK   85  A    between atoms: _189  and  _190
REMARK   86  A    between atoms: _190  and  _191
REMARK   87  A    between atoms: _191  and  _192
REMARK   88  A    between atoms: _192  and  CA_266
REMARK   89  A    between atoms: _194  and  _196
REMARK   90  A    between atoms: _196  and  _197
REMARK   91  A    between atoms: _196  and  _199
REMARK   92  A    between atoms: _197  and  _198
REMARK   93  A    between atoms: _197  and  _206
REMARK   94  A    between atoms: _198  and  CA_265
REMARK   95  A    between atoms: _199  and  _200
REMARK   96  A    between atoms: _200  and  _201
REMARK   97  A    between atoms: _206  and  _208
REMARK   98  A    between atoms: _208  and  _209
REMARK   99  A    between atoms: _208  and  _211
REMARK  100  A    between atoms: _211  and  _212
REMARK  101  A    between atoms: _215  and  _217
REMARK  102  A    between atoms: _217  and  _218
REMARK  103  A    between atoms: _217  and  _220
REMARK  104  A    between atoms: _220  and  _221
REMARK  105  A    between atoms: _223  and  _225
REMARK  106  A    between atoms: _225  and  _226
REMARK  107  A    between atoms: _225  and  _228
REMARK  108  A    between atoms: _228  and  _229
REMARK  109  A    between atoms: _229  and  _230
REMARK  110  A    between atoms: _230  and  _231
REMARK  111  A    between atoms: _231  and  _232
REMARK  112  A    between atoms: _236  and  _238
REMARK  113  A    between atoms: _238  and  _239
REMARK  114  A    between atoms: _238  and  _241
REMARK  115  A    between atoms: _241  and  _242
REMARK  116  A    between atoms: _245  and  _247
REMARK  117  A    between atoms: _247  and  _248
REMARK  118  A    between atoms: _247  and  _250
REMARK  119  A    between atoms: _250  and  _251
REMARK  120  A    between atoms: _253  and  _255
REMARK  121  A    between atoms: _255  and  _256
REMARK  122  A    between atoms: _255  and  _258
REMARK  123  A    between atoms: _258  and  _259
REMARK  124  A    between atoms: _259  and  _260
REMARK  125  A    between atoms: _260  and  _261
REMARK  126  A    between atoms: _260  and  _262
REMARK  127  A    between atoms: _261  and  CA_266
REMARK                            x       y       z     vdW  Elec       q    Type
REMARK                         _______ _______ _______ _____ _____    ______ ____
ROOT
ATOM      1  CA  SER A   1      21.846   6.523  52.460  0.00  0.00    +0.163 C 
ENDROOT
BRANCH   1   2
ATOM      2  N   SER A   1      21.107   5.963  51.329  0.00  0.00    -0.237 NA
ATOM      3  H   SER A   1      20.084   6.135  51.252  0.00  0.00    +0.142 HD
ENDBRANCH   1   2
BRANCH   1   4
ATOM      4  C   SER A   1      21.374   5.956  53.779  0.00  0.00    +0.227 C 
ATOM      5  O   SER A   1      20.177   5.746  53.985  0.00  0.00    -0.287 OA
ENDBRANCH   1   4
BRANCH   1   6
ATOM      6  CB  SER A   1      21.684   8.045  52.517  0.00  0.00    +0.162 C 
BRANCH   6   7
ATOM      7  OG  SER A   1      22.214   8.650  51.358  0.00  0.00    -0.380 OA
ATOM      8  H   SER A   1      23.177   8.434  51.285  0.00  0.00    +0.211 HD
ENDBRANCH   6   7
ENDBRANCH   1   6
TORSDOF 4
REMARK  Name = ../refined-set-2016/2w08/2w08_pocket.pdb
REMARK  127 active torsions:
REMARK  status: ('A' for Active; 'I' for Inactive)
REMARK    1  A    between atoms: _1  and  _3
REMARK    2  A    between atoms: _3  and  _4
REMARK    3  A    between atoms: _7  and  _9
REMARK    4  A    between atoms: _9  and  _10
REMARK    5  A    between atoms: _9  and  _12
REMARK    6  A    between atoms: _12  and  _13
REMARK    7  A    between atoms: _18  and  _19
REMARK    8  A    between atoms: _21  and  _23
REMARK    9  A    between atoms: _23  and  _24
REMARK   10  A    between atoms: _23  and  _26
REMARK   11  A    between atoms: _26  and  _27
REMARK   12  A    between atoms: _29  and  _31
REMARK   13  A    between atoms: _31  and  _32
REMARK   14  A    between atoms: _31  and  _34
REMARK   15  A    between atoms: _34  and  _35
REMARK   16  A    between atoms: _37  and  _39
REMARK   17  A    between atoms: _39  and  _40
REMARK   18  A    between atoms: _39  and  _42
REMARK   19  A    between atoms: _42  and  _43
REMARK   20  A    between atoms: _48  and  _50
REMARK   21  A    between atoms: _50  and  _51
REMARK   22  A    between atoms: _50  and  _53
REMARK   23  A    between atoms: _53  and  _54
REMARK   24  A    between atoms: _57  and  _59
REMARK   25  A    between atoms: _59  and  _60
REMARK   26  A    between atoms: _59  and  _62
REMARK   27  A    between atoms: _62  and  _63
REMARK   28  A    between atoms: _63  and  _64
REMARK   29  A    between atoms: _63  and  _65
REMARK   30  A    between atoms: _64  and  CA_265
REMARK   31  A    between atoms: _68  and  _70
REMARK   32  A    between atoms: _70  and  _71
REMARK   33  A    between atoms: _70  and  _73
REMARK   34  A    between atoms: _73  and  _74
REMARK   35  A    between atoms: _74  and  _75
REMARK   36  A    between atoms: _78  and  _80
REMARK   37  A    between atoms: _80  and  _81
REMARK   38  A    between atoms: _80  and  _83
REMARK   39  A    between atoms: _83  and  _84
REMARK   40  A    between atoms: _87  and  _89
REMARK   41  A    between atoms: _89  and  _90
REMARK   42  A    between atoms: _89  and  _92
REMARK   43  A    between atoms: _95  and  _97
REMARK   44  A    between atoms: _97  and  _98
REMARK   45  A    between atoms: _97  and  _100
REMARK   46  A    between atoms: _100  and  _101
REMARK   47  A    between atoms: _106  and  _107
REMARK   48  A    between atoms: _109  and  _111
REMARK   49  A    between atoms: _111  and  _112
REMARK   50  A    between atoms: _111  and  _114
REMARK   51  A    between atoms: _114  and  _115
REMARK   52  A    between atoms: _115  and  _116
REMARK   53  A    between atoms: _116  and  _117
REMARK   54  A    between atoms: _117  and  _118
REMARK   55  A    between atoms: _122  and  _124
REMARK   56  A    between atoms: _124  and  _125
REMARK   57  A    between atoms: _124  and  _127
REMARK   58  A    between atoms: _127  and  _128
REMARK   59  A    between atoms: _128  and  _129
REMARK   60  A    between atoms: _132  and  _134
REMARK   61  A    between atoms: _134  and  _135
REMARK   62  A    between atoms: _134  and  _137
REMARK   63  A    between atoms: _137  and  _138
REMARK   64  A    between atoms: _140  and  _142
REMARK   65  A    between atoms: _142  and  _143
REMARK   66  A    between atoms: _142  and  _145
REMARK   67  A    between atoms: _145  and  _146
REMARK   68  A    between atoms: _151  and  _152
REMARK   69  A    between atoms: _154  and  _156
REMARK   70  A    between atoms: _156  and  _157
REMARK   71  A    between atoms: _156  and  _159
REMARK   72  A    between atoms: _159  and  _160
REMARK   73  A    between atoms: _160  and  _161
REMARK   74  A    between atoms: _161  and  _162
REMARK   75  A    between atoms: _171  and  _173
REMARK   76  A    between atoms: _173  and  _174
REMARK   77  A    between atoms: _173  and  _176
REMARK   78  A    between atoms: _176  and  _177
REMARK   79  A    between atoms: _177  and  _178
REMARK   80  A    between atoms: _178  and  _179
REMARK   81  A    between atoms: _179  and  _180
REMARK   82  A    between atoms: _184  and  _186
REMARK   83  A    between atoms: _186  and  _187
REMARK   84  A    between atoms: _186  and  _189
REMARK   85  A    between atoms: _189  and  _190
REMARK   86  A    between atoms: _190  and  _191
REMARK   87  A    between atoms: _191  and  _192
REMARK   88  A    between atoms: _192  and  CA_266
REMARK   89  A    between atoms: _194  and  _196
REMARK   90  A    between atoms: _196  and  _197
REMARK   91  A    between atoms: _196  and  _199
REMARK   92  A    between atoms: _197  and  _198
REMARK   93  A    between atoms: _197  and  _206
REMARK   94  A    between atoms: _198  and  CA_265
REMARK   95  A    between atoms: _199  and  _200
REMARK   96  A    between atoms: _200  and  _201
REMARK   97  A    between atoms: _206  and  _208
REMARK   98  A    between atoms: _208  and  _209
REMARK   99  A    between atoms: _208  and  _211
REMARK  100  A    between atoms: _211  and  _212
REMARK  101  A    between atoms: _215  and  _217
REMARK  102  A    between atoms: _217  and  _218
REMARK  103  A    between atoms: _217  and  _220
REMARK  104  A    between atoms: _220  and  _221
REMARK  105  A    between atoms: _223  and  _225
REMARK  106  A    between atoms: _225  and  _226
REMARK  107  A    between atoms: _225  and  _228
REMARK  108  A    between atoms: _228  and  _229
REMARK  109  A    between atoms: _229  and  _230
REMARK  110  A    between atoms: _230  and  _231
REMARK  111  A    between atoms: _231  and  _232
REMARK  112  A    between atoms: _236  and  _238
REMARK  113  A    between atoms: _238  and  _239
REMARK  114  A    between atoms: _238  and  _241
REMARK  115  A    between atoms: _241  and  _242
REMARK  116  A    between atoms: _245  and  _247
REMARK  117  A    between atoms: _247  and  _248
REMARK  118  A    between atoms: _247  and  _250
REMARK  119  A    between atoms: _250  and  _251
REMARK  120  A    between atoms: _253  and  _255
REMARK  121  A    between atoms: _255  and  _256
REMARK  122  A    between atoms: _255  and  _258
REMARK  123  A    between atoms: _258  and  _259
REMARK  124  A    between atoms: _259  and  _260
REMARK  125  A    between atoms: _260  and  _261
REMARK  126  A    between atoms: _260  and  _262
REMARK  127  A    between atoms: _261  and  CA_266
REMARK                            x       y       z     vdW  Elec       q    Type
REMARK                         _______ _______ _______ _____ _____    ______ ____
ROOT
ATOM      1  CG  TYR A   1      21.231  10.039  57.813  0.00  0.00    -0.020 A 
ATOM      2  CD2 TYR A   1      21.677  11.363  57.880  0.00  0.00    -0.001 A 
ATOM      3  CE2 TYR A   1      21.590  12.207  56.778  0.00  0.00    +0.036 A 
ATOM      4  CZ  TYR A   1      21.048  11.732  55.598  0.00  0.00    +0.134 A 
ATOM      5  CE1 TYR A   1      20.593  10.429  55.508  0.00  0.00    +0.036 A 
ATOM      6  CD1 TYR A   1      20.680   9.594  56.620  0.00  0.00    -0.001 A 
ENDROOT
BRANCH   4   7
ATOM      7  OH  TYR A   1      20.963  12.569  54.504  0.00  0.00    -0.506 OA
ATOM      8  HH  TYR A   1      20.555  12.080  53.746  0.00  0.00    +0.292 HD
ENDBRANCH   4   7
BRANCH   1   9
ATOM      9  CB  TYR A   1      21.313   9.131  59.024  0.00  0.00    +0.051 C 
BRANCH   9  10
ATOM     10  CA  TYR A   1      22.255   7.928  58.889  0.00  0.00    +0.137 C 
BRANCH  10  11
ATOM     11  N   TYR A   1      21.776   7.003  57.870  0.00  0.00    -0.239 NA
ATOM     12  H   TYR A   1      20.772   6.733  57.865  0.00  0.00    +0.142 HD
ENDBRANCH  10  11
BRANCH  10  13
ATOM     13  C   TYR A   1      22.284   7.185  60.212  0.00  0.00    +0.224 C 
ATOM     14  O   TYR A   1      21.358   6.438  60.527  0.00  0.00    -0.287 OA
ENDBRANCH  10  13
ENDBRANCH   9  10
ENDBRANCH   1   9
TORSDOF 5
REMARK  Name = ../refined-set-2016/2w08/2w08_pocket.pdb
REMARK  127 active torsions:
REMARK  status: ('A' for Active; 'I' for Inactive)
REMARK    1  A    between atoms: _1  and  _3
REMARK    2  A    between atoms: _3  and  _4
REMARK    3  A    between atoms: _7  and  _9
REMARK    4  A    between atoms: _9  and  _10
REMARK    5  A    between atoms: _9  and  _12
REMARK    6  A    between atoms: _12  and  _13
REMARK    7  A    between atoms: _18  and  _19
REMARK    8  A    between atoms: _21  and  _23
REMARK    9  A    between atoms: _23  and  _24
REMARK   10  A    between atoms: _23  and  _26
REMARK   11  A    between atoms: _26  and  _27
REMARK   12  A    between atoms: _29  and  _31
REMARK   13  A    between atoms: _31  and  _32
REMARK   14  A    between atoms: _31  and  _34
REMARK   15  A    between atoms: _34  and  _35
REMARK   16  A    between atoms: _37  and  _39
REMARK   17  A    between atoms: _39  and  _40
REMARK   18  A    between atoms: _39  and  _42
REMARK   19  A    between atoms: _42  and  _43
REMARK   20  A    between atoms: _48  and  _50
REMARK   21  A    between atoms: _50  and  _51
REMARK   22  A    between atoms: _50  and  _53
REMARK   23  A    between atoms: _53  and  _54
REMARK   24  A    between atoms: _57  and  _59
REMARK   25  A    between atoms: _59  and  _60
REMARK   26  A    between atoms: _59  and  _62
REMARK   27  A    between atoms: _62  and  _63
REMARK   28  A    between atoms: _63  and  _64
REMARK   29  A    between atoms: _63  and  _65
REMARK   30  A    between atoms: _64  and  CA_265
REMARK   31  A    between atoms: _68  and  _70
REMARK   32  A    between atoms: _70  and  _71
REMARK   33  A    between atoms: _70  and  _73
REMARK   34  A    between atoms: _73  and  _74
REMARK   35  A    between atoms: _74  and  _75
REMARK   36  A    between atoms: _78  and  _80
REMARK   37  A    between atoms: _80  and  _81
REMARK   38  A    between atoms: _80  and  _83
REMARK   39  A    between atoms: _83  and  _84
REMARK   40  A    between atoms: _87  and  _89
REMARK   41  A    between atoms: _89  and  _90
REMARK   42  A    between atoms: _89  and  _92
REMARK   43  A    between atoms: _95  and  _97
REMARK   44  A    between atoms: _97  and  _98
REMARK   45  A    between atoms: _97  and  _100
REMARK   46  A    between atoms: _100  and  _101
REMARK   47  A    between atoms: _106  and  _107
REMARK   48  A    between atoms: _109  and  _111
REMARK   49  A    between atoms: _111  and  _112
REMARK   50  A    between atoms: _111  and  _114
REMARK   51  A    between atoms: _114  and  _115
REMARK   52  A    between atoms: _115  and  _116
REMARK   53  A    between atoms: _116  and  _117
REMARK   54  A    between atoms: _117  and  _118
REMARK   55  A    between atoms: _122  and  _124
REMARK   56  A    between atoms: _124  and  _125
REMARK   57  A    between atoms: _124  and  _127
REMARK   58  A    between atoms: _127  and  _128
REMARK   59  A    between atoms: _128  and  _129
REMARK   60  A    between atoms: _132  and  _134
REMARK   61  A    between atoms: _134  and  _135
REMARK   62  A    between atoms: _134  and  _137
REMARK   63  A    between atoms: _137  and  _138
REMARK   64  A    between atoms: _140  and  _142
REMARK   65  A    between atoms: _142  and  _143
REMARK   66  A    between atoms: _142  and  _145
REMARK   67  A    between atoms: _145  and  _146
REMARK   68  A    between atoms: _151  and  _152
REMARK   69  A    between atoms: _154  and  _156
REMARK   70  A    between atoms: _156  and  _157
REMARK   71  A    between atoms: _156  and  _159
REMARK   72  A    between atoms: _159  and  _160
REMARK   73  A    between atoms: _160  and  _161
REMARK   74  A    between atoms: _161  and  _162
REMARK   75  A    between atoms: _171  and  _173
REMARK   76  A    between atoms: _173  and  _174
REMARK   77  A    between atoms: _173  and  _176
REMARK   78  A    between atoms: _176  and  _177
REMARK   79  A    between atoms: _177  and  _178
REMARK   80  A    between atoms: _178  and  _179
REMARK   81  A    between atoms: _179  and  _180
REMARK   82  A    between atoms: _184  and  _186
REMARK   83  A    between atoms: _186  and  _187
REMARK   84  A    between atoms: _186  and  _189
REMARK   85  A    between atoms: _189  and  _190
REMARK   86  A    between atoms: _190  and  _191
REMARK   87  A    between atoms: _191  and  _192
REMARK   88  A    between atoms: _192  and  CA_266
REMARK   89  A    between atoms: _194  and  _196
REMARK   90  A    between atoms: _196  and  _197
REMARK   91  A    between atoms: _196  and  _199
REMARK   92  A    between atoms: _197  and  _198
REMARK   93  A    between atoms: _197  and  _206
REMARK   94  A    between atoms: _198  and  CA_265
REMARK   95  A    between atoms: _199  and  _200
REMARK   96  A    between atoms: _200  and  _201
REMARK   97  A    between atoms: _206  and  _208
REMARK   98  A    between atoms: _208  and  _209
REMARK   99  A    between atoms: _208  and  _211
REMARK  100  A    between atoms: _211  and  _212
REMARK  101  A    between atoms: _215  and  _217
REMARK  102  A    between atoms: _217  and  _218
REMARK  103  A    between atoms: _217  and  _220
REMARK  104  A    between atoms: _220  and  _221
REMARK  105  A    between atoms: _223  and  _225
REMARK  106  A    between atoms: _225  and  _226
REMARK  107  A    between atoms: _225  and  _228
REMARK  108  A    between atoms: _228  and  _229
REMARK  109  A    between atoms: _229  and  _230
REMARK  110  A    between atoms: _230  and  _231
REMARK  111  A    between atoms: _231  and  _232
REMARK  112  A    between atoms: _236  and  _238
REMARK  113  A    between atoms: _238  and  _239
REMARK  114  A    between atoms: _238  and  _241
REMARK  115  A    between atoms: _241  and  _242
REMARK  116  A    between atoms: _245  and  _247
REMARK  117  A    between atoms: _247  and  _248
REMARK  118  A    between atoms: _247  and  _250
REMARK  119  A    between atoms: _250  and  _251
REMARK  120  A    between atoms: _253  and  _255
REMARK  121  A    between atoms: _255  and  _256
REMARK  122  A    between atoms: _255  and  _258
REMARK  123  A    between atoms: _258  and  _259
REMARK  124  A    between atoms: _259  and  _260
REMARK  125  A    between atoms: _260  and  _261
REMARK  126  A    between atoms: _260  and  _262
REMARK  127  A    between atoms: _261  and  CA_266
REMARK                            x       y       z     vdW  Elec       q    Type
REMARK                         _______ _______ _______ _____ _____    ______ ____
ROOT
ATOM      1  NE  ARG A   1      21.332  16.468  64.336  0.00  0.00    -0.265 N 
ATOM      2  HE  ARG A   1      20.463  16.542  64.903  0.00  0.00    +0.259 HD
ATOM      3  CZ  ARG A   1      21.553  17.378  63.394  0.00  0.00    +0.342 C 
ATOM      4  NH2 ARG A   1      20.687  18.357  63.172  0.00  0.00    -0.292 N 
ATOM      5 HH21 ARG A   1      19.818  18.421  63.740  0.00  0.00    +0.255 HD
ATOM      6 HH22 ARG A   1      20.877  19.061  62.430  0.00  0.00    +0.255 HD
ATOM      7  NH1 ARG A   1      22.655  17.298  62.667  0.00  0.00    -0.292 N 
ATOM      8 HH11 ARG A   1      23.335  16.530  62.836  0.00  0.00    +0.255 HD
ATOM      9 HH12 ARG A   1      22.841  18.003  61.926  0.00  0.00    +0.255 HD
ENDROOT
BRANCH   1  10
ATOM     10  CD  ARG A   1      22.254  15.365  64.614  0.00  0.00    +0.174 C 
BRANCH  10  11
ATOM     11  CG  ARG A   1      22.075  14.223  63.613  0.00  0.00    +0.045 C 
BRANCH  11  12
ATOM     12  CB  ARG A   1      23.397  13.599  63.178  0.00  0.00    +0.029 C 
BRANCH  12  13
ATOM     13  CA  ARG A   1      23.217  12.345  62.300  0.00  0.00    +0.133 C 
BRANCH  13  14
ATOM     14  N   ARG A   1      23.033  11.136  63.107  0.00  0.00    -0.239 NA
ATOM     15  H   ARG A   1      22.279  10.473  62.834  0.00  0.00    +0.142 HD
ENDBRANCH  13  14
BRANCH  13  16
ATOM     16  C   ARG A   1      24.322  12.240  61.256  0.00  0.00    +0.224 C 
ATOM     17  O   ARG A   1      24.336  13.028  60.312  0.00  0.00    -0.287 OA
ENDBRANCH  13  16
ENDBRANCH  12  13
ENDBRANCH  11  12
ENDBRANCH  10  11
ENDBRANCH   1  10
TORSDOF 6
REMARK  Name = ../refined-set-2016/2w08/2w08_pocket.pdb
REMARK  127 active torsions:
REMARK  status: ('A' for Active; 'I' for Inactive)
REMARK    1  A    between atoms: _1  and  _3
REMARK    2  A    between atoms: _3  and  _4
REMARK    3  A    between atoms: _7  and  _9
REMARK    4  A    between atoms: _9  and  _10
REMARK    5  A    between atoms: _9  and  _12
REMARK    6  A    between atoms: _12  and  _13
REMARK    7  A    between atoms: _18  and  _19
REMARK    8  A    between atoms: _21  and  _23
REMARK    9  A    between atoms: _23  and  _24
REMARK   10  A    between atoms: _23  and  _26
REMARK   11  A    between atoms: _26  and  _27
REMARK   12  A    between atoms: _29  and  _31
REMARK   13  A    between atoms: _31  and  _32
REMARK   14  A    between atoms: _31  and  _34
REMARK   15  A    between atoms: _34  and  _35
REMARK   16  A    between atoms: _37  and  _39
REMARK   17  A    between atoms: _39  and  _40
REMARK   18  A    between atoms: _39  and  _42
REMARK   19  A    between atoms: _42  and  _43
REMARK   20  A    between atoms: _48  and  _50
REMARK   21  A    between atoms: _50  and  _51
REMARK   22  A    between atoms: _50  and  _53
REMARK   23  A    between atoms: _53  and  _54
REMARK   24  A    between atoms: _57  and  _59
REMARK   25  A    between atoms: _59  and  _60
REMARK   26  A    between atoms: _59  and  _62
REMARK   27  A    between atoms: _62  and  _63
REMARK   28  A    between atoms: _63  and  _64
REMARK   29  A    between atoms: _63  and  _65
REMARK   30  A    between atoms: _64  and  CA_265
REMARK   31  A    between atoms: _68  and  _70
REMARK   32  A    between atoms: _70  and  _71
REMARK   33  A    between atoms: _70  and  _73
REMARK   34  A    between atoms: _73  and  _74
REMARK   35  A    between atoms: _74  and  _75
REMARK   36  A    between atoms: _78  and  _80
REMARK   37  A    between atoms: _80  and  _81
REMARK   38  A    between atoms: _80  and  _83
REMARK   39  A    between atoms: _83  and  _84
REMARK   40  A    between atoms: _87  and  _89
REMARK   41  A    between atoms: _89  and  _90
REMARK   42  A    between atoms: _89  and  _92
REMARK   43  A    between atoms: _95  and  _97
REMARK   44  A    between atoms: _97  and  _98
REMARK   45  A    between atoms: _97  and  _100
REMARK   46  A    between atoms: _100  and  _101
REMARK   47  A    between atoms: _106  and  _107
REMARK   48  A    between atoms: _109  and  _111
REMARK   49  A    between atoms: _111  and  _112
REMARK   50  A    between atoms: _111  and  _114
REMARK   51  A    between atoms: _114  and  _115
REMARK   52  A    between atoms: _115  and  _116
REMARK   53  A    between atoms: _116  and  _117
REMARK   54  A    between atoms: _117  and  _118
REMARK   55  A    between atoms: _122  and  _124
REMARK   56  A    between atoms: _124  and  _125
REMARK   57  A    between atoms: _124  and  _127
REMARK   58  A    between atoms: _127  and  _128
REMARK   59  A    between atoms: _128  and  _129
REMARK   60  A    between atoms: _132  and  _134
REMARK   61  A    between atoms: _134  and  _135
REMARK   62  A    between atoms: _134  and  _137
REMARK   63  A    between atoms: _137  and  _138
REMARK   64  A    between atoms: _140  and  _142
REMARK   65  A    between atoms: _142  and  _143
REMARK   66  A    between atoms: _142  and  _145
REMARK   67  A    between atoms: _145  and  _146
REMARK   68  A    between atoms: _151  and  _152
REMARK   69  A    between atoms: _154  and  _156
REMARK   70  A    between atoms: _156  and  _157
REMARK   71  A    between atoms: _156  and  _159
REMARK   72  A    between atoms: _159  and  _160
REMARK   73  A    between atoms: _160  and  _161
REMARK   74  A    between atoms: _161  and  _162
REMARK   75  A    between atoms: _171  and  _173
REMARK   76  A    between atoms: _173  and  _174
REMARK   77  A    between atoms: _173  and  _176
REMARK   78  A    between atoms: _176  and  _177
REMARK   79  A    between atoms: _177  and  _178
REMARK   80  A    between atoms: _178  and  _179
REMARK   81  A    between atoms: _179  and  _180
REMARK   82  A    between atoms: _184  and  _186
REMARK   83  A    between atoms: _186  and  _187
REMARK   84  A    between atoms: _186  and  _189
REMARK   85  A    between atoms: _189  and  _190
REMARK   86  A    between atoms: _190  and  _191
REMARK   87  A    between atoms: _191  and  _192
REMARK   88  A    between atoms: _192  and  CA_266
REMARK   89  A    between atoms: _194  and  _196
REMARK   90  A    between atoms: _196  and  _197
REMARK   91  A    between atoms: _196  and  _199
REMARK   92  A    between atoms: _197  and  _198
REMARK   93  A    between atoms: _197  and  _206
REMARK   94  A    between atoms: _198  and  CA_265
REMARK   95  A    between atoms: _199  and  _200
REMARK   96  A    between atoms: _200  and  _201
REMARK   97  A    between atoms: _206  and  _208
REMARK   98  A    between atoms: _208  and  _209
REMARK   99  A    between atoms: _208  and  _211
REMARK  100  A    between atoms: _211  and  _212
REMARK  101  A    between atoms: _215  and  _217
REMARK  102  A    between atoms: _217  and  _218
REMARK  103  A    between atoms: _217  and  _220
REMARK  104  A    between atoms: _220  and  _221
REMARK  105  A    between atoms: _223  and  _225
REMARK  106  A    between atoms: _225  and  _226
REMARK  107  A    between atoms: _225  and  _228
REMARK  108  A    between atoms: _228  and  _229
REMARK  109  A    between atoms: _229  and  _230
REMARK  110  A    between atoms: _230  and  _231
REMARK  111  A    between atoms: _231  and  _232
REMARK  112  A    between atoms: _236  and  _238
REMARK  113  A    between atoms: _238  and  _239
REMARK  114  A    between atoms: _238  and  _241
REMARK  115  A    between atoms: _241  and  _242
REMARK  116  A    between atoms: _245  and  _247
REMARK  117  A    between atoms: _247  and  _248
REMARK  118  A    between atoms: _247  and  _250
REMARK  119  A    between atoms: _250  and  _251
REMARK  120  A    between atoms: _253  and  _255
REMARK  121  A    between atoms: _255  and  _256
REMARK  122  A    between atoms: _255  and  _258
REMARK  123  A    between atoms: _258  and  _259
REMARK  124  A    between atoms: _259  and  _260
REMARK  125  A    between atoms: _260  and  _261
REMARK  126  A    between atoms: _260  and  _262
REMARK  127  A    between atoms: _261  and  CA_266
REMARK                            x       y       z     vdW  Elec       q    Type
REMARK                         _______ _______ _______ _____ _____    ______ ____
ROOT
ATOM      1  CG  LYS A   1      24.625  10.067  54.680  0.00  0.00    -0.000 C 
ENDROOT
BRANCH   1   2
ATOM      2  CB  LYS A   1      24.813  10.495  56.122  0.00  0.00    +0.025 C 
BRANCH   2   3
ATOM      3  CA  LYS A   1      25.631   9.525  56.983  0.00  0.00    +0.133 C 
BRANCH   3   4
ATOM      4  N   LYS A   1      26.223  10.242  58.110  0.00  0.00    -0.239 NA
ATOM      5  H   LYS A   1      27.070  10.830  57.970  0.00  0.00    +0.142 HD
ENDBRANCH   3   4
BRANCH   3   6
ATOM      6  C   LYS A   1      26.673   8.816  56.117  0.00  0.00    +0.224 C 
ATOM      7  O   LYS A   1      27.826   9.261  55.995  0.00  0.00    -0.287 OA
ENDBRANCH   3   6
ENDBRANCH   2   3
ENDBRANCH   1   2
BRANCH   1   8
ATOM      8  CD  LYS A   1      23.955  11.159  53.838  0.00  0.00    -0.024 C 
BRANCH   8   9
ATOM      9  CE  LYS A   1      24.873  12.347  53.624  0.00  0.00    -0.086 C 
BRANCH   9  10
ATOM     10  NZ  LYS A   1      24.357  13.257  52.563  0.00  0.00    +0.380 N 
ATOM     11  HZ1 LYS A   1      23.419  13.612  52.839  0.00  0.00    -0.089 HD
ATOM     12  HZ2 LYS A   1      25.011  14.057  52.446  0.00  0.00    -0.089 HD
ATOM     13  HZ3 LYS A   1      24.282  12.735  51.667  0.00  0.00    -0.089 HD
ENDBRANCH   9  10
ENDBRANCH   8   9
ENDBRANCH   1   8
TORSDOF 7
REMARK  Name = ../refined-set-2016/2w08/2w08_pocket.pdb
REMARK  127 active torsions:
REMARK  status: ('A' for Active; 'I' for Inactive)
REMARK    1  A    between atoms: _1  and  _3
REMARK    2  A    between atoms: _3  and  _4
REMARK    3  A    between atoms: _7  and  _9
REMARK    4  A    between atoms: _9  and  _10
REMARK    5  A    between atoms: _9  and  _12
REMARK    6  A    between atoms: _12  and  _13
REMARK    7  A    between atoms: _18  and  _19
REMARK    8  A    between atoms: _21  and  _23
REMARK    9  A    between atoms: _23  and  _24
REMARK   10  A    between atoms: _23  and  _26
REMARK   11  A    between atoms: _26  and  _27
REMARK   12  A    between atoms: _29  and  _31
REMARK   13  A    between atoms: _31  and  _32
REMARK   14  A    between atoms: _31  and  _34
REMARK   15  A    between atoms: _34  and  _35
REMARK   16  A    between atoms: _37  and  _39
REMARK   17  A    between atoms: _39  and  _40
REMARK   18  A    between atoms: _39  and  _42
REMARK   19  A    between atoms: _42  and  _43
REMARK   20  A    between atoms: _48  and  _50
REMARK   21  A    between atoms: _50  and  _51
REMARK   22  A    between atoms: _50  and  _53
REMARK   23  A    between atoms: _53  and  _54
REMARK   24  A    between atoms: _57  and  _59
REMARK   25  A    between atoms: _59  and  _60
REMARK   26  A    between atoms: _59  and  _62
REMARK   27  A    between atoms: _62  and  _63
REMARK   28  A    between atoms: _63  and  _64
REMARK   29  A    between atoms: _63  and  _65
REMARK   30  A    between atoms: _64  and  CA_265
REMARK   31  A    between atoms: _68  and  _70
REMARK   32  A    between atoms: _70  and  _71
REMARK   33  A    between atoms: _70  and  _73
REMARK   34  A    between atoms: _73  and  _74
REMARK   35  A    between atoms: _74  and  _75
REMARK   36  A    between atoms: _78  and  _80
REMARK   37  A    between atoms: _80  and  _81
REMARK   38  A    between atoms: _80  and  _83
REMARK   39  A    between atoms: _83  and  _84
REMARK   40  A    between atoms: _87  and  _89
REMARK   41  A    between atoms: _89  and  _90
REMARK   42  A    between atoms: _89  and  _92
REMARK   43  A    between atoms: _95  and  _97
REMARK   44  A    between atoms: _97  and  _98
REMARK   45  A    between atoms: _97  and  _100
REMARK   46  A    between atoms: _100  and  _101
REMARK   47  A    between atoms: _106  and  _107
REMARK   48  A    between atoms: _109  and  _111
REMARK   49  A    between atoms: _111  and  _112
REMARK   50  A    between atoms: _111  and  _114
REMARK   51  A    between atoms: _114  and  _115
REMARK   52  A    between atoms: _115  and  _116
REMARK   53  A    between atoms: _116  and  _117
REMARK   54  A    between atoms: _117  and  _118
REMARK   55  A    between atoms: _122  and  _124
REMARK   56  A    between atoms: _124  and  _125
REMARK   57  A    between atoms: _124  and  _127
REMARK   58  A    between atoms: _127  and  _128
REMARK   59  A    between atoms: _128  and  _129
REMARK   60  A    between atoms: _132  and  _134
REMARK   61  A    between atoms: _134  and  _135
REMARK   62  A    between atoms: _134  and  _137
REMARK   63  A    between atoms: _137  and  _138
REMARK   64  A    between atoms: _140  and  _142
REMARK   65  A    between atoms: _142  and  _143
REMARK   66  A    between atoms: _142  and  _145
REMARK   67  A    between atoms: _145  and  _146
REMARK   68  A    between atoms: _151  and  _152
REMARK   69  A    between atoms: _154  and  _156
REMARK   70  A    between atoms: _156  and  _157
REMARK   71  A    between atoms: _156  and  _159
REMARK   72  A    between atoms: _159  and  _160
REMARK   73  A    between atoms: _160  and  _161
REMARK   74  A    between atoms: _161  and  _162
REMARK   75  A    between atoms: _171  and  _173
REMARK   76  A    between atoms: _173  and  _174
REMARK   77  A    between atoms: _173  and  _176
REMARK   78  A    between atoms: _176  and  _177
REMARK   79  A    between atoms: _177  and  _178
REMARK   80  A    between atoms: _178  and  _179
REMARK   81  A    between atoms: _179  and  _180
REMARK   82  A    between atoms: _184  and  _186
REMARK   83  A    between atoms: _186  and  _187
REMARK   84  A    between atoms: _186  and  _189
REMARK   85  A    between atoms: _189  and  _190
REMARK   86  A    between atoms: _190  and  _191
REMARK   87  A    between atoms: _191  and  _192
REMARK   88  A    between atoms: _192  and  CA_266
REMARK   89  A    between atoms: _194  and  _196
REMARK   90  A    between atoms: _196  and  _197
REMARK   91  A    between atoms: _196  and  _199
REMARK   92  A    between atoms: _197  and  _198
REMARK   93  A    between atoms: _197  and  _206
REMARK   94  A    between atoms: _198  and  CA_265
REMARK   95  A    between atoms: _199  and  _200
REMARK   96  A    between atoms: _200  and  _201
REMARK   97  A    between atoms: _206  and  _208
REMARK   98  A    between atoms: _208  and  _209
REMARK   99  A    between atoms: _208  and  _211
REMARK  100  A    between atoms: _211  and  _212
REMARK  101  A    between atoms: _215  and  _217
REMARK  102  A    between atoms: _217  and  _218
REMARK  103  A    between atoms: _217  and  _220
REMARK  104  A    between atoms: _220  and  _221
REMARK  105  A    between atoms: _223  and  _225
REMARK  106  A    between atoms: _225  and  _226
REMARK  107  A    between atoms: _225  and  _228
REMARK  108  A    between atoms: _228  and  _229
REMARK  109  A    between atoms: _229  and  _230
REMARK  110  A    between atoms: _230  and  _231
REMARK  111  A    between atoms: _231  and  _232
REMARK  112  A    between atoms: _236  and  _238
REMARK  113  A    between atoms: _238  and  _239
REMARK  114  A    between atoms: _238  and  _241
REMARK  115  A    between atoms: _241  and  _242
REMARK  116  A    between atoms: _245  and  _247
REMARK  117  A    between atoms: _247  and  _248
REMARK  118  A    between atoms: _247  and  _250
REMARK  119  A    between atoms: _250  and  _251
REMARK  120  A    between atoms: _253  and  _255
REMARK  121  A    between atoms: _255  and  _256
REMARK  122  A    between atoms: _255  and  _258
REMARK  123  A    between atoms: _258  and  _259
REMARK  124  A    between atoms: _259  and  _260
REMARK  125  A    between atoms: _260  and  _261
REMARK  126  A    between atoms: _260  and  _262
REMARK  127  A    between atoms: _261  and  CA_266
REMARK                            x       y       z     vdW  Elec       q    Type
REMARK                         _______ _______ _______ _____ _____    ______ ____
ROOT
ATOM      1  CG  LYS A   1       9.075  20.046  63.444  0.00  0.00    -0.000 C 
ENDROOT
BRANCH   1   2
ATOM      2  CB  LYS A   1       9.365  18.878  62.516  0.00  0.00    +0.025 C 
BRANCH   2   3
ATOM      3  CA  LYS A   1       8.112  18.264  61.892  0.00  0.00    +0.133 C 
BRANCH   3   4
ATOM      4  N   LYS A   1       7.443  17.336  62.811  0.00  0.00    -0.239 NA
ATOM      5  H   LYS A   1       6.587  17.665  63.302  0.00  0.00    +0.142 HD
ENDBRANCH   3   4
BRANCH   3   6
ATOM      6  C   LYS A   1       8.424  17.633  60.534  0.00  0.00    +0.224 C 
ATOM      7  O   LYS A   1       9.569  17.644  60.069  0.00  0.00    -0.287 OA
ENDBRANCH   3   6
ENDBRANCH   2   3
ENDBRANCH   1   2
BRANCH   1   8
ATOM      8  CD  LYS A   1      10.353  20.567  64.074  0.00  0.00    -0.024 C 
BRANCH   8   9
ATOM      9  CE  LYS A   1      10.064  21.506  65.234  0.00  0.00    -0.086 C 
BRANCH   9  10
ATOM     10  NZ  LYS A   1      11.325  21.896  65.926  0.00  0.00    +0.380 N 
ATOM     11  HZ1 LYS A   1      11.103  22.537  66.714  0.00  0.00    -0.089 HD
ATOM     12  HZ2 LYS A   1      11.796  21.044  66.293  0.00  0.00    -0.089 HD
ATOM     13  HZ3 LYS A   1      11.954  22.378  65.252  0.00  0.00    -0.089 HD
ENDBRANCH   9  10
ENDBRANCH   8   9
ENDBRANCH   1   8
TORSDOF 7
REMARK  Name = ../refined-set-2016/2w08/2w08_pocket.pdb
REMARK  127 active torsions:
REMARK  status: ('A' for Active; 'I' for Inactive)
REMARK    1  A    between atoms: _1  and  _3
REMARK    2  A    between atoms: _3  and  _4
REMARK    3  A    between atoms: _7  and  _9
REMARK    4  A    between atoms: _9  and  _10
REMARK    5  A    between atoms: _9  and  _12
REMARK    6  A    between atoms: _12  and  _13
REMARK    7  A    between atoms: _18  and  _19
REMARK    8  A    between atoms: _21  and  _23
REMARK    9  A    between atoms: _23  and  _24
REMARK   10  A    between atoms: _23  and  _26
REMARK   11  A    between atoms: _26  and  _27
REMARK   12  A    between atoms: _29  and  _31
REMARK   13  A    between atoms: _31  and  _32
REMARK   14  A    between atoms: _31  and  _34
REMARK   15  A    between atoms: _34  and  _35
REMARK   16  A    between atoms: _37  and  _39
REMARK   17  A    between atoms: _39  and  _40
REMARK   18  A    between atoms: _39  and  _42
REMARK   19  A    between atoms: _42  and  _43
REMARK   20  A    between atoms: _48  and  _50
REMARK   21  A    between atoms: _50  and  _51
REMARK   22  A    between atoms: _50  and  _53
REMARK   23  A    between atoms: _53  and  _54
REMARK   24  A    between atoms: _57  and  _59
REMARK   25  A    between atoms: _59  and  _60
REMARK   26  A    between atoms: _59  and  _62
REMARK   27  A    between atoms: _62  and  _63
REMARK   28  A    between atoms: _63  and  _64
REMARK   29  A    between atoms: _63  and  _65
REMARK   30  A    between atoms: _64  and  CA_265
REMARK   31  A    between atoms: _68  and  _70
REMARK   32  A    between atoms: _70  and  _71
REMARK   33  A    between atoms: _70  and  _73
REMARK   34  A    between atoms: _73  and  _74
REMARK   35  A    between atoms: _74  and  _75
REMARK   36  A    between atoms: _78  and  _80
REMARK   37  A    between atoms: _80  and  _81
REMARK   38  A    between atoms: _80  and  _83
REMARK   39  A    between atoms: _83  and  _84
REMARK   40  A    between atoms: _87  and  _89
REMARK   41  A    between atoms: _89  and  _90
REMARK   42  A    between atoms: _89  and  _92
REMARK   43  A    between atoms: _95  and  _97
REMARK   44  A    between atoms: _97  and  _98
REMARK   45  A    between atoms: _97  and  _100
REMARK   46  A    between atoms: _100  and  _101
REMARK   47  A    between atoms: _106  and  _107
REMARK   48  A    between atoms: _109  and  _111
REMARK   49  A    between atoms: _111  and  _112
REMARK   50  A    between atoms: _111  and  _114
REMARK   51  A    between atoms: _114  and  _115
REMARK   52  A    between atoms: _115  and  _116
REMARK   53  A    between atoms: _116  and  _117
REMARK   54  A    between atoms: _117  and  _118
REMARK   55  A    between atoms: _122  and  _124
REMARK   56  A    between atoms: _124  and  _125
REMARK   57  A    between atoms: _124  and  _127
REMARK   58  A    between atoms: _127  and  _128
REMARK   59  A    between atoms: _128  and  _129
REMARK   60  A    between atoms: _132  and  _134
REMARK   61  A    between atoms: _134  and  _135
REMARK   62  A    between atoms: _134  and  _137
REMARK   63  A    between atoms: _137  and  _138
REMARK   64  A    between atoms: _140  and  _142
REMARK   65  A    between atoms: _142  and  _143
REMARK   66  A    between atoms: _142  and  _145
REMARK   67  A    between atoms: _145  and  _146
REMARK   68  A    between atoms: _151  and  _152
REMARK   69  A    between atoms: _154  and  _156
REMARK   70  A    between atoms: _156  and  _157
REMARK   71  A    between atoms: _156  and  _159
REMARK   72  A    between atoms: _159  and  _160
REMARK   73  A    between atoms: _160  and  _161
REMARK   74  A    between atoms: _161  and  _162
REMARK   75  A    between atoms: _171  and  _173
REMARK   76  A    between atoms: _173  and  _174
REMARK   77  A    between atoms: _173  and  _176
REMARK   78  A    between atoms: _176  and  _177
REMARK   79  A    between atoms: _177  and  _178
REMARK   80  A    between atoms: _178  and  _179
REMARK   81  A    between atoms: _179  and  _180
REMARK   82  A    between atoms: _184  and  _186
REMARK   83  A    between atoms: _186  and  _187
REMARK   84  A    between atoms: _186  and  _189
REMARK   85  A    between atoms: _189  and  _190
REMARK   86  A    between atoms: _190  and  _191
REMARK   87  A    between atoms: _191  and  _192
REMARK   88  A    between atoms: _192  and  CA_266
REMARK   89  A    between atoms: _194  and  _196
REMARK   90  A    between atoms: _196  and  _197
REMARK   91  A    between atoms: _196  and  _199
REMARK   92  A    between atoms: _197  and  _198
REMARK   93  A    between atoms: _197  and  _206
REMARK   94  A    between atoms: _198  and  CA_265
REMARK   95  A    between atoms: _199  and  _200
REMARK   96  A    between atoms: _200  and  _201
REMARK   97  A    between atoms: _206  and  _208
REMARK   98  A    between atoms: _208  and  _209
REMARK   99  A    between atoms: _208  and  _211
REMARK  100  A    between atoms: _211  and  _212
REMARK  101  A    between atoms: _215  and  _217
REMARK  102  A    between atoms: _217  and  _218
REMARK  103  A    between atoms: _217  and  _220
REMARK  104  A    between atoms: _220  and  _221
REMARK  105  A    between atoms: _223  and  _225
REMARK  106  A    between atoms: _225  and  _226
REMARK  107  A    between atoms: _225  and  _228
REMARK  108  A    between atoms: _228  and  _229
REMARK  109  A    between atoms: _229  and  _230
REMARK  110  A    between atoms: _230  and  _231
REMARK  111  A    between atoms: _231  and  _232
REMARK  112  A    between atoms: _236  and  _238
REMARK  113  A    between atoms: _238  and  _239
REMARK  114  A    between atoms: _238  and  _241
REMARK  115  A    between atoms: _241  and  _242
REMARK  116  A    between atoms: _245  and  _247
REMARK  117  A    between atoms: _247  and  _248
REMARK  118  A    between atoms: _247  and  _250
REMARK  119  A    between atoms: _250  and  _251
REMARK  120  A    between atoms: _253  and  _255
REMARK  121  A    between atoms: _255  and  _256
REMARK  122  A    between atoms: _255  and  _258
REMARK  123  A    between atoms: _258  and  _259
REMARK  124  A    between atoms: _259  and  _260
REMARK  125  A    between atoms: _260  and  _261
REMARK  126  A    between atoms: _260  and  _262
REMARK  127  A    between atoms: _261  and  CA_266
REMARK                            x       y       z     vdW  Elec       q    Type
REMARK                         _______ _______ _______ _____ _____    ______ ____
ROOT
ATOM      1  CA  ASP A   1       8.441  17.843  55.182  0.00  0.00    +0.144 C 
ENDROOT
BRANCH   1   2
ATOM      2  N   ASP A   1       8.106  16.997  56.317  0.00  0.00    -0.239 NA
ATOM      3  H   ASP A   1       8.175  15.965  56.207  0.00  0.00    +0.142 HD
ENDBRANCH   1   2
BRANCH   1   4
ATOM      4  C   ASP A   1       7.869  17.174  53.944  0.00  0.00    +0.225 C 
ATOM      5  O   ASP A   1       8.275  16.068  53.584  0.00  0.00    -0.287 OA
ENDBRANCH   1   4
BRANCH   1   6
ATOM      6  CB  ASP A   1       9.962  17.988  55.087  0.00  0.00    +0.139 C 
BRANCH   6   7
ATOM      7  CG  ASP A   1      10.418  18.811  53.893  0.00  0.00    +0.367 C 
ATOM      8  OD2 ASP A   1      11.623  19.148  53.857  0.00  0.00    -0.246 OA
ATOM      9  OD1 ASP A   1       9.599  19.113  52.992  0.00  0.00    -0.246 OA
ENDBRANCH   6   7
ENDBRANCH   1   6
TORSDOF 4
REMARK  Name = ../refined-set-2016/2w08/2w08_pocket.pdb
REMARK  127 active torsions:
REMARK  status: ('A' for Active; 'I' for Inactive)
REMARK    1  A    between atoms: _1  and  _3
REMARK    2  A    between atoms: _3  and  _4
REMARK    3  A    between atoms: _7  and  _9
REMARK    4  A    between atoms: _9  and  _10
REMARK    5  A    between atoms: _9  and  _12
REMARK    6  A    between atoms: _12  and  _13
REMARK    7  A    between atoms: _18  and  _19
REMARK    8  A    between atoms: _21  and  _23
REMARK    9  A    between atoms: _23  and  _24
REMARK   10  A    between atoms: _23  and  _26
REMARK   11  A    between atoms: _26  and  _27
REMARK   12  A    between atoms: _29  and  _31
REMARK   13  A    between atoms: _31  and  _32
REMARK   14  A    between atoms: _31  and  _34
REMARK   15  A    between atoms: _34  and  _35
REMARK   16  A    between atoms: _37  and  _39
REMARK   17  A    between atoms: _39  and  _40
REMARK   18  A    between atoms: _39  and  _42
REMARK   19  A    between atoms: _42  and  _43
REMARK   20  A    between atoms: _48  and  _50
REMARK   21  A    between atoms: _50  and  _51
REMARK   22  A    between atoms: _50  and  _53
REMARK   23  A    between atoms: _53  and  _54
REMARK   24  A    between atoms: _57  and  _59
REMARK   25  A    between atoms: _59  and  _60
REMARK   26  A    between atoms: _59  and  _62
REMARK   27  A    between atoms: _62  and  _63
REMARK   28  A    between atoms: _63  and  _64
REMARK   29  A    between atoms: _63  and  _65
REMARK   30  A    between atoms: _64  and  CA_265
REMARK   31  A    between atoms: _68  and  _70
REMARK   32  A    between atoms: _70  and  _71
REMARK   33  A    between atoms: _70  and  _73
REMARK   34  A    between atoms: _73  and  _74
REMARK   35  A    between atoms: _74  and  _75
REMARK   36  A    between atoms: _78  and  _80
REMARK   37  A    between atoms: _80  and  _81
REMARK   38  A    between atoms: _80  and  _83
REMARK   39  A    between atoms: _83  and  _84
REMARK   40  A    between atoms: _87  and  _89
REMARK   41  A    between atoms: _89  and  _90
REMARK   42  A    between atoms: _89  and  _92
REMARK   43  A    between atoms: _95  and  _97
REMARK   44  A    between atoms: _97  and  _98
REMARK   45  A    between atoms: _97  and  _100
REMARK   46  A    between atoms: _100  and  _101
REMARK   47  A    between atoms: _106  and  _107
REMARK   48  A    between atoms: _109  and  _111
REMARK   49  A    between atoms: _111  and  _112
REMARK   50  A    between atoms: _111  and  _114
REMARK   51  A    between atoms: _114  and  _115
REMARK   52  A    between atoms: _115  and  _116
REMARK   53  A    between atoms: _116  and  _117
REMARK   54  A    between atoms: _117  and  _118
REMARK   55  A    between atoms: _122  and  _124
REMARK   56  A    between atoms: _124  and  _125
REMARK   57  A    between atoms: _124  and  _127
REMARK   58  A    between atoms: _127  and  _128
REMARK   59  A    between atoms: _128  and  _129
REMARK   60  A    between atoms: _132  and  _134
REMARK   61  A    between atoms: _134  and  _135
REMARK   62  A    between atoms: _134  and  _137
REMARK   63  A    between atoms: _137  and  _138
REMARK   64  A    between atoms: _140  and  _142
REMARK   65  A    between atoms: _142  and  _143
REMARK   66  A    between atoms: _142  and  _145
REMARK   67  A    between atoms: _145  and  _146
REMARK   68  A    between atoms: _151  and  _152
REMARK   69  A    between atoms: _154  and  _156
REMARK   70  A    between atoms: _156  and  _157
REMARK   71  A    between atoms: _156  and  _159
REMARK   72  A    between atoms: _159  and  _160
REMARK   73  A    between atoms: _160  and  _161
REMARK   74  A    between atoms: _161  and  _162
REMARK   75  A    between atoms: _171  and  _173
REMARK   76  A    between atoms: _173  and  _174
REMARK   77  A    between atoms: _173  and  _176
REMARK   78  A    between atoms: _176  and  _177
REMARK   79  A    between atoms: _177  and  _178
REMARK   80  A    between atoms: _178  and  _179
REMARK   81  A    between atoms: _179  and  _180
REMARK   82  A    between atoms: _184  and  _186
REMARK   83  A    between atoms: _186  and  _187
REMARK   84  A    between atoms: _186  and  _189
REMARK   85  A    between atoms: _189  and  _190
REMARK   86  A    between atoms: _190  and  _191
REMARK   87  A    between atoms: _191  and  _192
REMARK   88  A    between atoms: _192  and  CA_266
REMARK   89  A    between atoms: _194  and  _196
REMARK   90  A    between atoms: _196  and  _197
REMARK   91  A    between atoms: _196  and  _199
REMARK   92  A    between atoms: _197  and  _198
REMARK   93  A    between atoms: _197  and  _206
REMARK   94  A    between atoms: _198  and  CA_265
REMARK   95  A    between atoms: _199  and  _200
REMARK   96  A    between atoms: _200  and  _201
REMARK   97  A    between atoms: _206  and  _208
REMARK   98  A    between atoms: _208  and  _209
REMARK   99  A    between atoms: _208  and  _211
REMARK  100  A    between atoms: _211  and  _212
REMARK  101  A    between atoms: _215  and  _217
REMARK  102  A    between atoms: _217  and  _218
REMARK  103  A    between atoms: _217  and  _220
REMARK  104  A    between atoms: _220  and  _221
REMARK  105  A    between atoms: _223  and  _225
REMARK  106  A    between atoms: _225  and  _226
REMARK  107  A    between atoms: _225  and  _228
REMARK  108  A    between atoms: _228  and  _229
REMARK  109  A    between atoms: _229  and  _230
REMARK  110  A    between atoms: _230  and  _231
REMARK  111  A    between atoms: _231  and  _232
REMARK  112  A    between atoms: _236  and  _238
REMARK  113  A    between atoms: _238  and  _239
REMARK  114  A    between atoms: _238  and  _241
REMARK  115  A    between atoms: _241  and  _242
REMARK  116  A    between atoms: _245  and  _247
REMARK  117  A    between atoms: _247  and  _248
REMARK  118  A    between atoms: _247  and  _250
REMARK  119  A    between atoms: _250  and  _251
REMARK  120  A    between atoms: _253  and  _255
REMARK  121  A    between atoms: _255  and  _256
REMARK  122  A    between atoms: _255  and  _258
REMARK  123  A    between atoms: _258  and  _259
REMARK  124  A    between atoms: _259  and  _260
REMARK  125  A    between atoms: _260  and  _261
REMARK  126  A    between atoms: _260  and  _262
REMARK  127  A    between atoms: _261  and  CA_266
REMARK                            x       y       z     vdW  Elec       q    Type
REMARK                         _______ _______ _______ _____ _____    ______ ____
ROOT
ATOM      1  O   HOH     1      15.014  15.814  45.621  0.00  0.00    +0.000 OA
ENDROOT
TORSDOF 0
REMARK  Name = ../refined-set-2016/2w08/2w08_pocket.pdb
REMARK  127 active torsions:
REMARK  status: ('A' for Active; 'I' for Inactive)
REMARK    1  A    between atoms: _1  and  _3
REMARK    2  A    between atoms: _3  and  _4
REMARK    3  A    between atoms: _7  and  _9
REMARK    4  A    between atoms: _9  and  _10
REMARK    5  A    between atoms: _9  and  _12
REMARK    6  A    between atoms: _12  and  _13
REMARK    7  A    between atoms: _18  and  _19
REMARK    8  A    between atoms: _21  and  _23
REMARK    9  A    between atoms: _23  and  _24
REMARK   10  A    between atoms: _23  and  _26
REMARK   11  A    between atoms: _26  and  _27
REMARK   12  A    between atoms: _29  and  _31
REMARK   13  A    between atoms: _31  and  _32
REMARK   14  A    between atoms: _31  and  _34
REMARK   15  A    between atoms: _34  and  _35
REMARK   16  A    between atoms: _37  and  _39
REMARK   17  A    between atoms: _39  and  _40
REMARK   18  A    between atoms: _39  and  _42
REMARK   19  A    between atoms: _42  and  _43
REMARK   20  A    between atoms: _48  and  _50
REMARK   21  A    between atoms: _50  and  _51
REMARK   22  A    between atoms: _50  and  _53
REMARK   23  A    between atoms: _53  and  _54
REMARK   24  A    between atoms: _57  and  _59
REMARK   25  A    between atoms: _59  and  _60
REMARK   26  A    between atoms: _59  and  _62
REMARK   27  A    between atoms: _62  and  _63
REMARK   28  A    between atoms: _63  and  _64
REMARK   29  A    between atoms: _63  and  _65
REMARK   30  A    between atoms: _64  and  CA_265
REMARK   31  A    between atoms: _68  and  _70
REMARK   32  A    between atoms: _70  and  _71
REMARK   33  A    between atoms: _70  and  _73
REMARK   34  A    between atoms: _73  and  _74
REMARK   35  A    between atoms: _74  and  _75
REMARK   36  A    between atoms: _78  and  _80
REMARK   37  A    between atoms: _80  and  _81
REMARK   38  A    between atoms: _80  and  _83
REMARK   39  A    between atoms: _83  and  _84
REMARK   40  A    between atoms: _87  and  _89
REMARK   41  A    between atoms: _89  and  _90
REMARK   42  A    between atoms: _89  and  _92
REMARK   43  A    between atoms: _95  and  _97
REMARK   44  A    between atoms: _97  and  _98
REMARK   45  A    between atoms: _97  and  _100
REMARK   46  A    between atoms: _100  and  _101
REMARK   47  A    between atoms: _106  and  _107
REMARK   48  A    between atoms: _109  and  _111
REMARK   49  A    between atoms: _111  and  _112
REMARK   50  A    between atoms: _111  and  _114
REMARK   51  A    between atoms: _114  and  _115
REMARK   52  A    between atoms: _115  and  _116
REMARK   53  A    between atoms: _116  and  _117
REMARK   54  A    between atoms: _117  and  _118
REMARK   55  A    between atoms: _122  and  _124
REMARK   56  A    between atoms: _124  and  _125
REMARK   57  A    between atoms: _124  and  _127
REMARK   58  A    between atoms: _127  and  _128
REMARK   59  A    between atoms: _128  and  _129
REMARK   60  A    between atoms: _132  and  _134
REMARK   61  A    between atoms: _134  and  _135
REMARK   62  A    between atoms: _134  and  _137
REMARK   63  A    between atoms: _137  and  _138
REMARK   64  A    between atoms: _140  and  _142
REMARK   65  A    between atoms: _142  and  _143
REMARK   66  A    between atoms: _142  and  _145
REMARK   67  A    between atoms: _145  and  _146
REMARK   68  A    between atoms: _151  and  _152
REMARK   69  A    between atoms: _154  and  _156
REMARK   70  A    between atoms: _156  and  _157
REMARK   71  A    between atoms: _156  and  _159
REMARK   72  A    between atoms: _159  and  _160
REMARK   73  A    between atoms: _160  and  _161
REMARK   74  A    between atoms: _161  and  _162
REMARK   75  A    between atoms: _171  and  _173
REMARK   76  A    between atoms: _173  and  _174
REMARK   77  A    between atoms: _173  and  _176
REMARK   78  A    between atoms: _176  and  _177
REMARK   79  A    between atoms: _177  and  _178
REMARK   80  A    between atoms: _178  and  _179
REMARK   81  A    between atoms: _179  and  _180
REMARK   82  A    between atoms: _184  and  _186
REMARK   83  A    between atoms: _186  and  _187
REMARK   84  A    between atoms: _186  and  _189
REMARK   85  A    between atoms: _189  and  _190
REMARK   86  A    between atoms: _190  and  _191
REMARK   87  A    between atoms: _191  and  _192
REMARK   88  A    between atoms: _192  and  CA_266
REMARK   89  A    between atoms: _194  and  _196
REMARK   90  A    between atoms: _196  and  _197
REMARK   91  A    between atoms: _196  and  _199
REMARK   92  A    between atoms: _197  and  _198
REMARK   93  A    between atoms: _197  and  _206
REMARK   94  A    between atoms: _198  and  CA_265
REMARK   95  A    between atoms: _199  and  _200
REMARK   96  A    between atoms: _200  and  _201
REMARK   97  A    between atoms: _206  and  _208
REMARK   98  A    between atoms: _208  and  _209
REMARK   99  A    between atoms: _208  and  _211
REMARK  100  A    between atoms: _211  and  _212
REMARK  101  A    between atoms: _215  and  _217
REMARK  102  A    between atoms: _217  and  _218
REMARK  103  A    between atoms: _217  and  _220
REMARK  104  A    between atoms: _220  and  _221
REMARK  105  A    between atoms: _223  and  _225
REMARK  106  A    between atoms: _225  and  _226
REMARK  107  A    between atoms: _225  and  _228
REMARK  108  A    between atoms: _228  and  _229
REMARK  109  A    between atoms: _229  and  _230
REMARK  110  A    between atoms: _230  and  _231
REMARK  111  A    between atoms: _231  and  _232
REMARK  112  A    between atoms: _236  and  _238
REMARK  113  A    between atoms: _238  and  _239
REMARK  114  A    between atoms: _238  and  _241
REMARK  115  A    between atoms: _241  and  _242
REMARK  116  A    between atoms: _245  and  _247
REMARK  117  A    between atoms: _247  and  _248
REMARK  118  A    between atoms: _247  and  _250
REMARK  119  A    between atoms: _250  and  _251
REMARK  120  A    between atoms: _253  and  _255
REMARK  121  A    between atoms: _255  and  _256
REMARK  122  A    between atoms: _255  and  _258
REMARK  123  A    between atoms: _258  and  _259
REMARK  124  A    between atoms: _259  and  _260
REMARK  125  A    between atoms: _260  and  _261
REMARK  126  A    between atoms: _260  and  _262
REMARK  127  A    between atoms: _261  and  CA_266
REMARK                            x       y       z     vdW  Elec       q    Type
REMARK                         _______ _______ _______ _____ _____    ______ ____
ROOT
ATOM      1  O   HOH     1      14.711  10.707  60.702  0.00  0.00    +0.000 OA
ENDROOT
TORSDOF 0
REMARK  Name = ../refined-set-2016/2w08/2w08_pocket.pdb
REMARK  127 active torsions:
REMARK  status: ('A' for Active; 'I' for Inactive)
REMARK    1  A    between atoms: _1  and  _3
REMARK    2  A    between atoms: _3  and  _4
REMARK    3  A    between atoms: _7  and  _9
REMARK    4  A    between atoms: _9  and  _10
REMARK    5  A    between atoms: _9  and  _12
REMARK    6  A    between atoms: _12  and  _13
REMARK    7  A    between atoms: _18  and  _19
REMARK    8  A    between atoms: _21  and  _23
REMARK    9  A    between atoms: _23  and  _24
REMARK   10  A    between atoms: _23  and  _26
REMARK   11  A    between atoms: _26  and  _27
REMARK   12  A    between atoms: _29  and  _31
REMARK   13  A    between atoms: _31  and  _32
REMARK   14  A    between atoms: _31  and  _34
REMARK   15  A    between atoms: _34  and  _35
REMARK   16  A    between atoms: _37  and  _39
REMARK   17  A    between atoms: _39  and  _40
REMARK   18  A    between atoms: _39  and  _42
REMARK   19  A    between atoms: _42  and  _43
REMARK   20  A    between atoms: _48  and  _50
REMARK   21  A    between atoms: _50  and  _51
REMARK   22  A    between atoms: _50  and  _53
REMARK   23  A    between atoms: _53  and  _54
REMARK   24  A    between atoms: _57  and  _59
REMARK   25  A    between atoms: _59  and  _60
REMARK   26  A    between atoms: _59  and  _62
REMARK   27  A    between atoms: _62  and  _63
REMARK   28  A    between atoms: _63  and  _64
REMARK   29  A    between atoms: _63  and  _65
REMARK   30  A    between atoms: _64  and  CA_265
REMARK   31  A    between atoms: _68  and  _70
REMARK   32  A    between atoms: _70  and  _71
REMARK   33  A    between atoms: _70  and  _73
REMARK   34  A    between atoms: _73  and  _74
REMARK   35  A    between atoms: _74  and  _75
REMARK   36  A    between atoms: _78  and  _80
REMARK   37  A    between atoms: _80  and  _81
REMARK   38  A    between atoms: _80  and  _83
REMARK   39  A    between atoms: _83  and  _84
REMARK   40  A    between atoms: _87  and  _89
REMARK   41  A    between atoms: _89  and  _90
REMARK   42  A    between atoms: _89  and  _92
REMARK   43  A    between atoms: _95  and  _97
REMARK   44  A    between atoms: _97  and  _98
REMARK   45  A    between atoms: _97  and  _100
REMARK   46  A    between atoms: _100  and  _101
REMARK   47  A    between atoms: _106  and  _107
REMARK   48  A    between atoms: _109  and  _111
REMARK   49  A    between atoms: _111  and  _112
REMARK   50  A    between atoms: _111  and  _114
REMARK   51  A    between atoms: _114  and  _115
REMARK   52  A    between atoms: _115  and  _116
REMARK   53  A    between atoms: _116  and  _117
REMARK   54  A    between atoms: _117  and  _118
REMARK   55  A    between atoms: _122  and  _124
REMARK   56  A    between atoms: _124  and  _125
REMARK   57  A    between atoms: _124  and  _127
REMARK   58  A    between atoms: _127  and  _128
REMARK   59  A    between atoms: _128  and  _129
REMARK   60  A    between atoms: _132  and  _134
REMARK   61  A    between atoms: _134  and  _135
REMARK   62  A    between atoms: _134  and  _137
REMARK   63  A    between atoms: _137  and  _138
REMARK   64  A    between atoms: _140  and  _142
REMARK   65  A    between atoms: _142  and  _143
REMARK   66  A    between atoms: _142  and  _145
REMARK   67  A    between atoms: _145  and  _146
REMARK   68  A    between atoms: _151  and  _152
REMARK   69  A    between atoms: _154  and  _156
REMARK   70  A    between atoms: _156  and  _157
REMARK   71  A    between atoms: _156  and  _159
REMARK   72  A    between atoms: _159  and  _160
REMARK   73  A    between atoms: _160  and  _161
REMARK   74  A    between atoms: _161  and  _162
REMARK   75  A    between atoms: _171  and  _173
REMARK   76  A    between atoms: _173  and  _174
REMARK   77  A    between atoms: _173  and  _176
REMARK   78  A    between atoms: _176  and  _177
REMARK   79  A    between atoms: _177  and  _178
REMARK   80  A    between atoms: _178  and  _179
REMARK   81  A    between atoms: _179  and  _180
REMARK   82  A    between atoms: _184  and  _186
REMARK   83  A    between atoms: _186  and  _187
REMARK   84  A    between atoms: _186  and  _189
REMARK   85  A    between atoms: _189  and  _190
REMARK   86  A    between atoms: _190  and  _191
REMARK   87  A    between atoms: _191  and  _192
REMARK   88  A    between atoms: _192  and  CA_266
REMARK   89  A    between atoms: _194  and  _196
REMARK   90  A    between atoms: _196  and  _197
REMARK   91  A    between atoms: _196  and  _199
REMARK   92  A    between atoms: _197  and  _198
REMARK   93  A    between atoms: _197  and  _206
REMARK   94  A    between atoms: _198  and  CA_265
REMARK   95  A    between atoms: _199  and  _200
REMARK   96  A    between atoms: _200  and  _201
REMARK   97  A    between atoms: _206  and  _208
REMARK   98  A    between atoms: _208  and  _209
REMARK   99  A    between atoms: _208  and  _211
REMARK  100  A    between atoms: _211  and  _212
REMARK  101  A    between atoms: _215  and  _217
REMARK  102  A    between atoms: _217  and  _218
REMARK  103  A    between atoms: _217  and  _220
REMARK  104  A    between atoms: _220  and  _221
REMARK  105  A    between atoms: _223  and  _225
REMARK  106  A    between atoms: _225  and  _226
REMARK  107  A    between atoms: _225  and  _228
REMARK  108  A    between atoms: _228  and  _229
REMARK  109  A    between atoms: _229  and  _230
REMARK  110  A    between atoms: _230  and  _231
REMARK  111  A    between atoms: _231  and  _232
REMARK  112  A    between atoms: _236  and  _238
REMARK  113  A    between atoms: _238  and  _239
REMARK  114  A    between atoms: _238  and  _241
REMARK  115  A    between atoms: _241  and  _242
REMARK  116  A    between atoms: _245  and  _247
REMARK  117  A    between atoms: _247  and  _248
REMARK  118  A    between atoms: _247  and  _250
REMARK  119  A    between atoms: _250  and  _251
REMARK  120  A    between atoms: _253  and  _255
REMARK  121  A    between atoms: _255  and  _256
REMARK  122  A    between atoms: _255  and  _258
REMARK  123  A    between atoms: _258  and  _259
REMARK  124  A    between atoms: _259  and  _260
REMARK  125  A    between atoms: _260  and  _261
REMARK  126  A    between atoms: _260  and  _262
REMARK  127  A    between atoms: _261  and  CA_266
REMARK                            x       y       z     vdW  Elec       q    Type
REMARK                         _______ _______ _______ _____ _____    ______ ____
ROOT
ATOM      1  O   HOH     1      18.602  17.486  60.247  0.00  0.00    +0.000 OA
ENDROOT
TORSDOF 0
REMARK  Name = ../refined-set-2016/2w08/2w08_pocket.pdb
REMARK  127 active torsions:
REMARK  status: ('A' for Active; 'I' for Inactive)
REMARK    1  A    between atoms: _1  and  _3
REMARK    2  A    between atoms: _3  and  _4
REMARK    3  A    between atoms: _7  and  _9
REMARK    4  A    between atoms: _9  and  _10
REMARK    5  A    between atoms: _9  and  _12
REMARK    6  A    between atoms: _12  and  _13
REMARK    7  A    between atoms: _18  and  _19
REMARK    8  A    between atoms: _21  and  _23
REMARK    9  A    between atoms: _23  and  _24
REMARK   10  A    between atoms: _23  and  _26
REMARK   11  A    between atoms: _26  and  _27
REMARK   12  A    between atoms: _29  and  _31
REMARK   13  A    between atoms: _31  and  _32
REMARK   14  A    between atoms: _31  and  _34
REMARK   15  A    between atoms: _34  and  _35
REMARK   16  A    between atoms: _37  and  _39
REMARK   17  A    between atoms: _39  and  _40
REMARK   18  A    between atoms: _39  and  _42
REMARK   19  A    between atoms: _42  and  _43
REMARK   20  A    between atoms: _48  and  _50
REMARK   21  A    between atoms: _50  and  _51
REMARK   22  A    between atoms: _50  and  _53
REMARK   23  A    between atoms: _53  and  _54
REMARK   24  A    between atoms: _57  and  _59
REMARK   25  A    between atoms: _59  and  _60
REMARK   26  A    between atoms: _59  and  _62
REMARK   27  A    between atoms: _62  and  _63
REMARK   28  A    between atoms: _63  and  _64
REMARK   29  A    between atoms: _63  and  _65
REMARK   30  A    between atoms: _64  and  CA_265
REMARK   31  A    between atoms: _68  and  _70
REMARK   32  A    between atoms: _70  and  _71
REMARK   33  A    between atoms: _70  and  _73
REMARK   34  A    between atoms: _73  and  _74
REMARK   35  A    between atoms: _74  and  _75
REMARK   36  A    between atoms: _78  and  _80
REMARK   37  A    between atoms: _80  and  _81
REMARK   38  A    between atoms: _80  and  _83
REMARK   39  A    between atoms: _83  and  _84
REMARK   40  A    between atoms: _87  and  _89
REMARK   41  A    between atoms: _89  and  _90
REMARK   42  A    between atoms: _89  and  _92
REMARK   43  A    between atoms: _95  and  _97
REMARK   44  A    between atoms: _97  and  _98
REMARK   45  A    between atoms: _97  and  _100
REMARK   46  A    between atoms: _100  and  _101
REMARK   47  A    between atoms: _106  and  _107
REMARK   48  A    between atoms: _109  and  _111
REMARK   49  A    between atoms: _111  and  _112
REMARK   50  A    between atoms: _111  and  _114
REMARK   51  A    between atoms: _114  and  _115
REMARK   52  A    between atoms: _115  and  _116
REMARK   53  A    between atoms: _116  and  _117
REMARK   54  A    between atoms: _117  and  _118
REMARK   55  A    between atoms: _122  and  _124
REMARK   56  A    between atoms: _124  and  _125
REMARK   57  A    between atoms: _124  and  _127
REMARK   58  A    between atoms: _127  and  _128
REMARK   59  A    between atoms: _128  and  _129
REMARK   60  A    between atoms: _132  and  _134
REMARK   61  A    between atoms: _134  and  _135
REMARK   62  A    between atoms: _134  and  _137
REMARK   63  A    between atoms: _137  and  _138
REMARK   64  A    between atoms: _140  and  _142
REMARK   65  A    between atoms: _142  and  _143
REMARK   66  A    between atoms: _142  and  _145
REMARK   67  A    between atoms: _145  and  _146
REMARK   68  A    between atoms: _151  and  _152
REMARK   69  A    between atoms: _154  and  _156
REMARK   70  A    between atoms: _156  and  _157
REMARK   71  A    between atoms: _156  and  _159
REMARK   72  A    between atoms: _159  and  _160
REMARK   73  A    between atoms: _160  and  _161
REMARK   74  A    between atoms: _161  and  _162
REMARK   75  A    between atoms: _171  and  _173
REMARK   76  A    between atoms: _173  and  _174
REMARK   77  A    between atoms: _173  and  _176
REMARK   78  A    between atoms: _176  and  _177
REMARK   79  A    between atoms: _177  and  _178
REMARK   80  A    between atoms: _178  and  _179
REMARK   81  A    between atoms: _179  and  _180
REMARK   82  A    between atoms: _184  and  _186
REMARK   83  A    between atoms: _186  and  _187
REMARK   84  A    between atoms: _186  and  _189
REMARK   85  A    between atoms: _189  and  _190
REMARK   86  A    between atoms: _190  and  _191
REMARK   87  A    between atoms: _191  and  _192
REMARK   88  A    between atoms: _192  and  CA_266
REMARK   89  A    between atoms: _194  and  _196
REMARK   90  A    between atoms: _196  and  _197
REMARK   91  A    between atoms: _196  and  _199
REMARK   92  A    between atoms: _197  and  _198
REMARK   93  A    between atoms: _197  and  _206
REMARK   94  A    between atoms: _198  and  CA_265
REMARK   95  A    between atoms: _199  and  _200
REMARK   96  A    between atoms: _200  and  _201
REMARK   97  A    between atoms: _206  and  _208
REMARK   98  A    between atoms: _208  and  _209
REMARK   99  A    between atoms: _208  and  _211
REMARK  100  A    between atoms: _211  and  _212
REMARK  101  A    between atoms: _215  and  _217
REMARK  102  A    between atoms: _217  and  _218
REMARK  103  A    between atoms: _217  and  _220
REMARK  104  A    between atoms: _220  and  _221
REMARK  105  A    between atoms: _223  and  _225
REMARK  106  A    between atoms: _225  and  _226
REMARK  107  A    between atoms: _225  and  _228
REMARK  108  A    between atoms: _228  and  _229
REMARK  109  A    between atoms: _229  and  _230
REMARK  110  A    between atoms: _230  and  _231
REMARK  111  A    between atoms: _231  and  _232
REMARK  112  A    between atoms: _236  and  _238
REMARK  113  A    between atoms: _238  and  _239
REMARK  114  A    between atoms: _238  and  _241
REMARK  115  A    between atoms: _241  and  _242
REMARK  116  A    between atoms: _245  and  _247
REMARK  117  A    between atoms: _247  and  _248
REMARK  118  A    between atoms: _247  and  _250
REMARK  119  A    between atoms: _250  and  _251
REMARK  120  A    between atoms: _253  and  _255
REMARK  121  A    between atoms: _255  and  _256
REMARK  122  A    between atoms: _255  and  _258
REMARK  123  A    between atoms: _258  and  _259
REMARK  124  A    between atoms: _259  and  _260
REMARK  125  A    between atoms: _260  and  _261
REMARK  126  A    between atoms: _260  and  _262
REMARK  127  A    between atoms: _261  and  CA_266
REMARK                            x       y       z     vdW  Elec       q    Type
REMARK                         _______ _______ _______ _____ _____    ______ ____
ROOT
ATOM      1  O   HOH     1      16.473  18.852  62.395  0.00  0.00    +0.000 OA
ENDROOT
TORSDOF 0
REMARK  Name = ../refined-set-2016/2w08/2w08_pocket.pdb
REMARK  127 active torsions:
REMARK  status: ('A' for Active; 'I' for Inactive)
REMARK    1  A    between atoms: _1  and  _3
REMARK    2  A    between atoms: _3  and  _4
REMARK    3  A    between atoms: _7  and  _9
REMARK    4  A    between atoms: _9  and  _10
REMARK    5  A    between atoms: _9  and  _12
REMARK    6  A    between atoms: _12  and  _13
REMARK    7  A    between atoms: _18  and  _19
REMARK    8  A    between atoms: _21  and  _23
REMARK    9  A    between atoms: _23  and  _24
REMARK   10  A    between atoms: _23  and  _26
REMARK   11  A    between atoms: _26  and  _27
REMARK   12  A    between atoms: _29  and  _31
REMARK   13  A    between atoms: _31  and  _32
REMARK   14  A    between atoms: _31  and  _34
REMARK   15  A    between atoms: _34  and  _35
REMARK   16  A    between atoms: _37  and  _39
REMARK   17  A    between atoms: _39  and  _40
REMARK   18  A    between atoms: _39  and  _42
REMARK   19  A    between atoms: _42  and  _43
REMARK   20  A    between atoms: _48  and  _50
REMARK   21  A    between atoms: _50  and  _51
REMARK   22  A    between atoms: _50  and  _53
REMARK   23  A    between atoms: _53  and  _54
REMARK   24  A    between atoms: _57  and  _59
REMARK   25  A    between atoms: _59  and  _60
REMARK   26  A    between atoms: _59  and  _62
REMARK   27  A    between atoms: _62  and  _63
REMARK   28  A    between atoms: _63  and  _64
REMARK   29  A    between atoms: _63  and  _65
REMARK   30  A    between atoms: _64  and  CA_265
REMARK   31  A    between atoms: _68  and  _70
REMARK   32  A    between atoms: _70  and  _71
REMARK   33  A    between atoms: _70  and  _73
REMARK   34  A    between atoms: _73  and  _74
REMARK   35  A    between atoms: _74  and  _75
REMARK   36  A    between atoms: _78  and  _80
REMARK   37  A    between atoms: _80  and  _81
REMARK   38  A    between atoms: _80  and  _83
REMARK   39  A    between atoms: _83  and  _84
REMARK   40  A    between atoms: _87  and  _89
REMARK   41  A    between atoms: _89  and  _90
REMARK   42  A    between atoms: _89  and  _92
REMARK   43  A    between atoms: _95  and  _97
REMARK   44  A    between atoms: _97  and  _98
REMARK   45  A    between atoms: _97  and  _100
REMARK   46  A    between atoms: _100  and  _101
REMARK   47  A    between atoms: _106  and  _107
REMARK   48  A    between atoms: _109  and  _111
REMARK   49  A    between atoms: _111  and  _112
REMARK   50  A    between atoms: _111  and  _114
REMARK   51  A    between atoms: _114  and  _115
REMARK   52  A    between atoms: _115  and  _116
REMARK   53  A    between atoms: _116  and  _117
REMARK   54  A    between atoms: _117  and  _118
REMARK   55  A    between atoms: _122  and  _124
REMARK   56  A    between atoms: _124  and  _125
REMARK   57  A    between atoms: _124  and  _127
REMARK   58  A    between atoms: _127  and  _128
REMARK   59  A    between atoms: _128  and  _129
REMARK   60  A    between atoms: _132  and  _134
REMARK   61  A    between atoms: _134  and  _135
REMARK   62  A    between atoms: _134  and  _137
REMARK   63  A    between atoms: _137  and  _138
REMARK   64  A    between atoms: _140  and  _142
REMARK   65  A    between atoms: _142  and  _143
REMARK   66  A    between atoms: _142  and  _145
REMARK   67  A    between atoms: _145  and  _146
REMARK   68  A    between atoms: _151  and  _152
REMARK   69  A    between atoms: _154  and  _156
REMARK   70  A    between atoms: _156  and  _157
REMARK   71  A    between atoms: _156  and  _159
REMARK   72  A    between atoms: _159  and  _160
REMARK   73  A    between atoms: _160  and  _161
REMARK   74  A    between atoms: _161  and  _162
REMARK   75  A    between atoms: _171  and  _173
REMARK   76  A    between atoms: _173  and  _174
REMARK   77  A    between atoms: _173  and  _176
REMARK   78  A    between atoms: _176  and  _177
REMARK   79  A    between atoms: _177  and  _178
REMARK   80  A    between atoms: _178  and  _179
REMARK   81  A    between atoms: _179  and  _180
REMARK   82  A    between atoms: _184  and  _186
REMARK   83  A    between atoms: _186  and  _187
REMARK   84  A    between atoms: _186  and  _189
REMARK   85  A    between atoms: _189  and  _190
REMARK   86  A    between atoms: _190  and  _191
REMARK   87  A    between atoms: _191  and  _192
REMARK   88  A    between atoms: _192  and  CA_266
REMARK   89  A    between atoms: _194  and  _196
REMARK   90  A    between atoms: _196  and  _197
REMARK   91  A    between atoms: _196  and  _199
REMARK   92  A    between atoms: _197  and  _198
REMARK   93  A    between atoms: _197  and  _206
REMARK   94  A    between atoms: _198  and  CA_265
REMARK   95  A    between atoms: _199  and  _200
REMARK   96  A    between atoms: _200  and  _201
REMARK   97  A    between atoms: _206  and  _208
REMARK   98  A    between atoms: _208  and  _209
REMARK   99  A    between atoms: _208  and  _211
REMARK  100  A    between atoms: _211  and  _212
REMARK  101  A    between atoms: _215  and  _217
REMARK  102  A    between atoms: _217  and  _218
REMARK  103  A    between atoms: _217  and  _220
REMARK  104  A    between atoms: _220  and  _221
REMARK  105  A    between atoms: _223  and  _225
REMARK  106  A    between atoms: _225  and  _226
REMARK  107  A    between atoms: _225  and  _228
REMARK  108  A    between atoms: _228  and  _229
REMARK  109  A    between atoms: _229  and  _230
REMARK  110  A    between atoms: _230  and  _231
REMARK  111  A    between atoms: _231  and  _232
REMARK  112  A    between atoms: _236  and  _238
REMARK  113  A    between atoms: _238  and  _239
REMARK  114  A    between atoms: _238  and  _241
REMARK  115  A    between atoms: _241  and  _242
REMARK  116  A    between atoms: _245  and  _247
REMARK  117  A    between atoms: _247  and  _248
REMARK  118  A    between atoms: _247  and  _250
REMARK  119  A    between atoms: _250  and  _251
REMARK  120  A    between atoms: _253  and  _255
REMARK  121  A    between atoms: _255  and  _256
REMARK  122  A    between atoms: _255  and  _258
REMARK  123  A    between atoms: _258  and  _259
REMARK  124  A    between atoms: _259  and  _260
REMARK  125  A    between atoms: _260  and  _261
REMARK  126  A    between atoms: _260  and  _262
REMARK  127  A    between atoms: _261  and  CA_266
REMARK                            x       y       z     vdW  Elec       q    Type
REMARK                         _______ _______ _______ _____ _____    ______ ____
ROOT
ATOM      1  O   HOH     1      16.900  15.715  50.203  0.00  0.00    +0.000 OA
ENDROOT
TORSDOF 0
REMARK  Name = ../refined-set-2016/2w08/2w08_pocket.pdb
REMARK  127 active torsions:
REMARK  status: ('A' for Active; 'I' for Inactive)
REMARK    1  A    between atoms: _1  and  _3
REMARK    2  A    between atoms: _3  and  _4
REMARK    3  A    between atoms: _7  and  _9
REMARK    4  A    between atoms: _9  and  _10
REMARK    5  A    between atoms: _9  and  _12
REMARK    6  A    between atoms: _12  and  _13
REMARK    7  A    between atoms: _18  and  _19
REMARK    8  A    between atoms: _21  and  _23
REMARK    9  A    between atoms: _23  and  _24
REMARK   10  A    between atoms: _23  and  _26
REMARK   11  A    between atoms: _26  and  _27
REMARK   12  A    between atoms: _29  and  _31
REMARK   13  A    between atoms: _31  and  _32
REMARK   14  A    between atoms: _31  and  _34
REMARK   15  A    between atoms: _34  and  _35
REMARK   16  A    between atoms: _37  and  _39
REMARK   17  A    between atoms: _39  and  _40
REMARK   18  A    between atoms: _39  and  _42
REMARK   19  A    between atoms: _42  and  _43
REMARK   20  A    between atoms: _48  and  _50
REMARK   21  A    between atoms: _50  and  _51
REMARK   22  A    between atoms: _50  and  _53
REMARK   23  A    between atoms: _53  and  _54
REMARK   24  A    between atoms: _57  and  _59
REMARK   25  A    between atoms: _59  and  _60
REMARK   26  A    between atoms: _59  and  _62
REMARK   27  A    between atoms: _62  and  _63
REMARK   28  A    between atoms: _63  and  _64
REMARK   29  A    between atoms: _63  and  _65
REMARK   30  A    between atoms: _64  and  CA_265
REMARK   31  A    between atoms: _68  and  _70
REMARK   32  A    between atoms: _70  and  _71
REMARK   33  A    between atoms: _70  and  _73
REMARK   34  A    between atoms: _73  and  _74
REMARK   35  A    between atoms: _74  and  _75
REMARK   36  A    between atoms: _78  and  _80
REMARK   37  A    between atoms: _80  and  _81
REMARK   38  A    between atoms: _80  and  _83
REMARK   39  A    between atoms: _83  and  _84
REMARK   40  A    between atoms: _87  and  _89
REMARK   41  A    between atoms: _89  and  _90
REMARK   42  A    between atoms: _89  and  _92
REMARK   43  A    between atoms: _95  and  _97
REMARK   44  A    between atoms: _97  and  _98
REMARK   45  A    between atoms: _97  and  _100
REMARK   46  A    between atoms: _100  and  _101
REMARK   47  A    between atoms: _106  and  _107
REMARK   48  A    between atoms: _109  and  _111
REMARK   49  A    between atoms: _111  and  _112
REMARK   50  A    between atoms: _111  and  _114
REMARK   51  A    between atoms: _114  and  _115
REMARK   52  A    between atoms: _115  and  _116
REMARK   53  A    between atoms: _116  and  _117
REMARK   54  A    between atoms: _117  and  _118
REMARK   55  A    between atoms: _122  and  _124
REMARK   56  A    between atoms: _124  and  _125
REMARK   57  A    between atoms: _124  and  _127
REMARK   58  A    between atoms: _127  and  _128
REMARK   59  A    between atoms: _128  and  _129
REMARK   60  A    between atoms: _132  and  _134
REMARK   61  A    between atoms: _134  and  _135
REMARK   62  A    between atoms: _134  and  _137
REMARK   63  A    between atoms: _137  and  _138
REMARK   64  A    between atoms: _140  and  _142
REMARK   65  A    between atoms: _142  and  _143
REMARK   66  A    between atoms: _142  and  _145
REMARK   67  A    between atoms: _145  and  _146
REMARK   68  A    between atoms: _151  and  _152
REMARK   69  A    between atoms: _154  and  _156
REMARK   70  A    between atoms: _156  and  _157
REMARK   71  A    between atoms: _156  and  _159
REMARK   72  A    between atoms: _159  and  _160
REMARK   73  A    between atoms: _160  and  _161
REMARK   74  A    between atoms: _161  and  _162
REMARK   75  A    between atoms: _171  and  _173
REMARK   76  A    between atoms: _173  and  _174
REMARK   77  A    between atoms: _173  and  _176
REMARK   78  A    between atoms: _176  and  _177
REMARK   79  A    between atoms: _177  and  _178
REMARK   80  A    between atoms: _178  and  _179
REMARK   81  A    between atoms: _179  and  _180
REMARK   82  A    between atoms: _184  and  _186
REMARK   83  A    between atoms: _186  and  _187
REMARK   84  A    between atoms: _186  and  _189
REMARK   85  A    between atoms: _189  and  _190
REMARK   86  A    between atoms: _190  and  _191
REMARK   87  A    between atoms: _191  and  _192
REMARK   88  A    between atoms: _192  and  CA_266
REMARK   89  A    between atoms: _194  and  _196
REMARK   90  A    between atoms: _196  and  _197
REMARK   91  A    between atoms: _196  and  _199
REMARK   92  A    between atoms: _197  and  _198
REMARK   93  A    between atoms: _197  and  _206
REMARK   94  A    between atoms: _198  and  CA_265
REMARK   95  A    between atoms: _199  and  _200
REMARK   96  A    between atoms: _200  and  _201
REMARK   97  A    between atoms: _206  and  _208
REMARK   98  A    between atoms: _208  and  _209
REMARK   99  A    between atoms: _208  and  _211
REMARK  100  A    between atoms: _211  and  _212
REMARK  101  A    between atoms: _215  and  _217
REMARK  102  A    between atoms: _217  and  _218
REMARK  103  A    between atoms: _217  and  _220
REMARK  104  A    between atoms: _220  and  _221
REMARK  105  A    between atoms: _223  and  _225
REMARK  106  A    between atoms: _225  and  _226
REMARK  107  A    between atoms: _225  and  _228
REMARK  108  A    between atoms: _228  and  _229
REMARK  109  A    between atoms: _229  and  _230
REMARK  110  A    between atoms: _230  and  _231
REMARK  111  A    between atoms: _231  and  _232
REMARK  112  A    between atoms: _236  and  _238
REMARK  113  A    between atoms: _238  and  _239
REMARK  114  A    between atoms: _238  and  _241
REMARK  115  A    between atoms: _241  and  _242
REMARK  116  A    between atoms: _245  and  _247
REMARK  117  A    between atoms: _247  and  _248
REMARK  118  A    between atoms: _247  and  _250
REMARK  119  A    between atoms: _250  and  _251
REMARK  120  A    between atoms: _253  and  _255
REMARK  121  A    between atoms: _255  and  _256
REMARK  122  A    between atoms: _255  and  _258
REMARK  123  A    between atoms: _258  and  _259
REMARK  124  A    between atoms: _259  and  _260
REMARK  125  A    between atoms: _260  and  _261
REMARK  126  A    between atoms: _260  and  _262
REMARK  127  A    between atoms: _261  and  CA_266
REMARK                            x       y       z     vdW  Elec       q    Type
REMARK                         _______ _______ _______ _____ _____    ______ ____
ROOT
ATOM      1  O   HOH     1      21.147  11.333  51.867  0.00  0.00    +0.000 OA
ENDROOT
TORSDOF 0
REMARK  Name = ../refined-set-2016/2w08/2w08_pocket.pdb
REMARK  127 active torsions:
REMARK  status: ('A' for Active; 'I' for Inactive)
REMARK    1  A    between atoms: _1  and  _3
REMARK    2  A    between atoms: _3  and  _4
REMARK    3  A    between atoms: _7  and  _9
REMARK    4  A    between atoms: _9  and  _10
REMARK    5  A    between atoms: _9  and  _12
REMARK    6  A    between atoms: _12  and  _13
REMARK    7  A    between atoms: _18  and  _19
REMARK    8  A    between atoms: _21  and  _23
REMARK    9  A    between atoms: _23  and  _24
REMARK   10  A    between atoms: _23  and  _26
REMARK   11  A    between atoms: _26  and  _27
REMARK   12  A    between atoms: _29  and  _31
REMARK   13  A    between atoms: _31  and  _32
REMARK   14  A    between atoms: _31  and  _34
REMARK   15  A    between atoms: _34  and  _35
REMARK   16  A    between atoms: _37  and  _39
REMARK   17  A    between atoms: _39  and  _40
REMARK   18  A    between atoms: _39  and  _42
REMARK   19  A    between atoms: _42  and  _43
REMARK   20  A    between atoms: _48  and  _50
REMARK   21  A    between atoms: _50  and  _51
REMARK   22  A    between atoms: _50  and  _53
REMARK   23  A    between atoms: _53  and  _54
REMARK   24  A    between atoms: _57  and  _59
REMARK   25  A    between atoms: _59  and  _60
REMARK   26  A    between atoms: _59  and  _62
REMARK   27  A    between atoms: _62  and  _63
REMARK   28  A    between atoms: _63  and  _64
REMARK   29  A    between atoms: _63  and  _65
REMARK   30  A    between atoms: _64  and  CA_265
REMARK   31  A    between atoms: _68  and  _70
REMARK   32  A    between atoms: _70  and  _71
REMARK   33  A    between atoms: _70  and  _73
REMARK   34  A    between atoms: _73  and  _74
REMARK   35  A    between atoms: _74  and  _75
REMARK   36  A    between atoms: _78  and  _80
REMARK   37  A    between atoms: _80  and  _81
REMARK   38  A    between atoms: _80  and  _83
REMARK   39  A    between atoms: _83  and  _84
REMARK   40  A    between atoms: _87  and  _89
REMARK   41  A    between atoms: _89  and  _90
REMARK   42  A    between atoms: _89  and  _92
REMARK   43  A    between atoms: _95  and  _97
REMARK   44  A    between atoms: _97  and  _98
REMARK   45  A    between atoms: _97  and  _100
REMARK   46  A    between atoms: _100  and  _101
REMARK   47  A    between atoms: _106  and  _107
REMARK   48  A    between atoms: _109  and  _111
REMARK   49  A    between atoms: _111  and  _112
REMARK   50  A    between atoms: _111  and  _114
REMARK   51  A    between atoms: _114  and  _115
REMARK   52  A    between atoms: _115  and  _116
REMARK   53  A    between atoms: _116  and  _117
REMARK   54  A    between atoms: _117  and  _118
REMARK   55  A    between atoms: _122  and  _124
REMARK   56  A    between atoms: _124  and  _125
REMARK   57  A    between atoms: _124  and  _127
REMARK   58  A    between atoms: _127  and  _128
REMARK   59  A    between atoms: _128  and  _129
REMARK   60  A    between atoms: _132  and  _134
REMARK   61  A    between atoms: _134  and  _135
REMARK   62  A    between atoms: _134  and  _137
REMARK   63  A    between atoms: _137  and  _138
REMARK   64  A    between atoms: _140  and  _142
REMARK   65  A    between atoms: _142  and  _143
REMARK   66  A    between atoms: _142  and  _145
REMARK   67  A    between atoms: _145  and  _146
REMARK   68  A    between atoms: _151  and  _152
REMARK   69  A    between atoms: _154  and  _156
REMARK   70  A    between atoms: _156  and  _157
REMARK   71  A    between atoms: _156  and  _159
REMARK   72  A    between atoms: _159  and  _160
REMARK   73  A    between atoms: _160  and  _161
REMARK   74  A    between atoms: _161  and  _162
REMARK   75  A    between atoms: _171  and  _173
REMARK   76  A    between atoms: _173  and  _174
REMARK   77  A    between atoms: _173  and  _176
REMARK   78  A    between atoms: _176  and  _177
REMARK   79  A    between atoms: _177  and  _178
REMARK   80  A    between atoms: _178  and  _179
REMARK   81  A    between atoms: _179  and  _180
REMARK   82  A    between atoms: _184  and  _186
REMARK   83  A    between atoms: _186  and  _187
REMARK   84  A    between atoms: _186  and  _189
REMARK   85  A    between atoms: _189  and  _190
REMARK   86  A    between atoms: _190  and  _191
REMARK   87  A    between atoms: _191  and  _192
REMARK   88  A    between atoms: _192  and  CA_266
REMARK   89  A    between atoms: _194  and  _196
REMARK   90  A    between atoms: _196  and  _197
REMARK   91  A    between atoms: _196  and  _199
REMARK   92  A    between atoms: _197  and  _198
REMARK   93  A    between atoms: _197  and  _206
REMARK   94  A    between atoms: _198  and  CA_265
REMARK   95  A    between atoms: _199  and  _200
REMARK   96  A    between atoms: _200  and  _201
REMARK   97  A    between atoms: _206  and  _208
REMARK   98  A    between atoms: _208  and  _209
REMARK   99  A    between atoms: _208  and  _211
REMARK  100  A    between atoms: _211  and  _212
REMARK  101  A    between atoms: _215  and  _217
REMARK  102  A    between atoms: _217  and  _218
REMARK  103  A    between atoms: _217  and  _220
REMARK  104  A    between atoms: _220  and  _221
REMARK  105  A    between atoms: _223  and  _225
REMARK  106  A    between atoms: _225  and  _226
REMARK  107  A    between atoms: _225  and  _228
REMARK  108  A    between atoms: _228  and  _229
REMARK  109  A    between atoms: _229  and  _230
REMARK  110  A    between atoms: _230  and  _231
REMARK  111  A    between atoms: _231  and  _232
REMARK  112  A    between atoms: _236  and  _238
REMARK  113  A    between atoms: _238  and  _239
REMARK  114  A    between atoms: _238  and  _241
REMARK  115  A    between atoms: _241  and  _242
REMARK  116  A    between atoms: _245  and  _247
REMARK  117  A    between atoms: _247  and  _248
REMARK  118  A    between atoms: _247  and  _250
REMARK  119  A    between atoms: _250  and  _251
REMARK  120  A    between atoms: _253  and  _255
REMARK  121  A    between atoms: _255  and  _256
REMARK  122  A    between atoms: _255  and  _258
REMARK  123  A    between atoms: _258  and  _259
REMARK  124  A    between atoms: _259  and  _260
REMARK  125  A    between atoms: _260  and  _261
REMARK  126  A    between atoms: _260  and  _262
REMARK  127  A    between atoms: _261  and  CA_266
REMARK                            x       y       z     vdW  Elec       q    Type
REMARK                         _______ _______ _______ _____ _____    ______ ____
ROOT
ATOM      1  O   HOH     1      21.959  14.568  59.392  0.00  0.00    +0.000 OA
ENDROOT
TORSDOF 0
REMARK  Name = ../refined-set-2016/2w08/2w08_pocket.pdb
REMARK  127 active torsions:
REMARK  status: ('A' for Active; 'I' for Inactive)
REMARK    1  A    between atoms: _1  and  _3
REMARK    2  A    between atoms: _3  and  _4
REMARK    3  A    between atoms: _7  and  _9
REMARK    4  A    between atoms: _9  and  _10
REMARK    5  A    between atoms: _9  and  _12
REMARK    6  A    between atoms: _12  and  _13
REMARK    7  A    between atoms: _18  and  _19
REMARK    8  A    between atoms: _21  and  _23
REMARK    9  A    between atoms: _23  and  _24
REMARK   10  A    between atoms: _23  and  _26
REMARK   11  A    between atoms: _26  and  _27
REMARK   12  A    between atoms: _29  and  _31
REMARK   13  A    between atoms: _31  and  _32
REMARK   14  A    between atoms: _31  and  _34
REMARK   15  A    between atoms: _34  and  _35
REMARK   16  A    between atoms: _37  and  _39
REMARK   17  A    between atoms: _39  and  _40
REMARK   18  A    between atoms: _39  and  _42
REMARK   19  A    between atoms: _42  and  _43
REMARK   20  A    between atoms: _48  and  _50
REMARK   21  A    between atoms: _50  and  _51
REMARK   22  A    between atoms: _50  and  _53
REMARK   23  A    between atoms: _53  and  _54
REMARK   24  A    between atoms: _57  and  _59
REMARK   25  A    between atoms: _59  and  _60
REMARK   26  A    between atoms: _59  and  _62
REMARK   27  A    between atoms: _62  and  _63
REMARK   28  A    between atoms: _63  and  _64
REMARK   29  A    between atoms: _63  and  _65
REMARK   30  A    between atoms: _64  and  CA_265
REMARK   31  A    between atoms: _68  and  _70
REMARK   32  A    between atoms: _70  and  _71
REMARK   33  A    between atoms: _70  and  _73
REMARK   34  A    between atoms: _73  and  _74
REMARK   35  A    between atoms: _74  and  _75
REMARK   36  A    between atoms: _78  and  _80
REMARK   37  A    between atoms: _80  and  _81
REMARK   38  A    between atoms: _80  and  _83
REMARK   39  A    between atoms: _83  and  _84
REMARK   40  A    between atoms: _87  and  _89
REMARK   41  A    between atoms: _89  and  _90
REMARK   42  A    between atoms: _89  and  _92
REMARK   43  A    between atoms: _95  and  _97
REMARK   44  A    between atoms: _97  and  _98
REMARK   45  A    between atoms: _97  and  _100
REMARK   46  A    between atoms: _100  and  _101
REMARK   47  A    between atoms: _106  and  _107
REMARK   48  A    between atoms: _109  and  _111
REMARK   49  A    between atoms: _111  and  _112
REMARK   50  A    between atoms: _111  and  _114
REMARK   51  A    between atoms: _114  and  _115
REMARK   52  A    between atoms: _115  and  _116
REMARK   53  A    between atoms: _116  and  _117
REMARK   54  A    between atoms: _117  and  _118
REMARK   55  A    between atoms: _122  and  _124
REMARK   56  A    between atoms: _124  and  _125
REMARK   57  A    between atoms: _124  and  _127
REMARK   58  A    between atoms: _127  and  _128
REMARK   59  A    between atoms: _128  and  _129
REMARK   60  A    between atoms: _132  and  _134
REMARK   61  A    between atoms: _134  and  _135
REMARK   62  A    between atoms: _134  and  _137
REMARK   63  A    between atoms: _137  and  _138
REMARK   64  A    between atoms: _140  and  _142
REMARK   65  A    between atoms: _142  and  _143
REMARK   66  A    between atoms: _142  and  _145
REMARK   67  A    between atoms: _145  and  _146
REMARK   68  A    between atoms: _151  and  _152
REMARK   69  A    between atoms: _154  and  _156
REMARK   70  A    between atoms: _156  and  _157
REMARK   71  A    between atoms: _156  and  _159
REMARK   72  A    between atoms: _159  and  _160
REMARK   73  A    between atoms: _160  and  _161
REMARK   74  A    between atoms: _161  and  _162
REMARK   75  A    between atoms: _171  and  _173
REMARK   76  A    between atoms: _173  and  _174
REMARK   77  A    between atoms: _173  and  _176
REMARK   78  A    between atoms: _176  and  _177
REMARK   79  A    between atoms: _177  and  _178
REMARK   80  A    between atoms: _178  and  _179
REMARK   81  A    between atoms: _179  and  _180
REMARK   82  A    between atoms: _184  and  _186
REMARK   83  A    between atoms: _186  and  _187
REMARK   84  A    between atoms: _186  and  _189
REMARK   85  A    between atoms: _189  and  _190
REMARK   86  A    between atoms: _190  and  _191
REMARK   87  A    between atoms: _191  and  _192
REMARK   88  A    between atoms: _192  and  CA_266
REMARK   89  A    between atoms: _194  and  _196
REMARK   90  A    between atoms: _196  and  _197
REMARK   91  A    between atoms: _196  and  _199
REMARK   92  A    between atoms: _197  and  _198
REMARK   93  A    between atoms: _197  and  _206
REMARK   94  A    between atoms: _198  and  CA_265
REMARK   95  A    between atoms: _199  and  _200
REMARK   96  A    between atoms: _200  and  _201
REMARK   97  A    between atoms: _206  and  _208
REMARK   98  A    between atoms: _208  and  _209
REMARK   99  A    between atoms: _208  and  _211
REMARK  100  A    between atoms: _211  and  _212
REMARK  101  A    between atoms: _215  and  _217
REMARK  102  A    between atoms: _217  and  _218
REMARK  103  A    between atoms: _217  and  _220
REMARK  104  A    between atoms: _220  and  _221
REMARK  105  A    between atoms: _223  and  _225
REMARK  106  A    between atoms: _225  and  _226
REMARK  107  A    between atoms: _225  and  _228
REMARK  108  A    between atoms: _228  and  _229
REMARK  109  A    between atoms: _229  and  _230
REMARK  110  A    between atoms: _230  and  _231
REMARK  111  A    between atoms: _231  and  _232
REMARK  112  A    between atoms: _236  and  _238
REMARK  113  A    between atoms: _238  and  _239
REMARK  114  A    between atoms: _238  and  _241
REMARK  115  A    between atoms: _241  and  _242
REMARK  116  A    between atoms: _245  and  _247
REMARK  117  A    between atoms: _247  and  _248
REMARK  118  A    between atoms: _247  and  _250
REMARK  119  A    between atoms: _250  and  _251
REMARK  120  A    between atoms: _253  and  _255
REMARK  121  A    between atoms: _255  and  _256
REMARK  122  A    between atoms: _255  and  _258
REMARK  123  A    between atoms: _258  and  _259
REMARK  124  A    between atoms: _259  and  _260
REMARK  125  A    between atoms: _260  and  _261
REMARK  126  A    between atoms: _260  and  _262
REMARK  127  A    between atoms: _261  and  CA_266
REMARK                            x       y       z     vdW  Elec       q    Type
REMARK                         _______ _______ _______ _____ _____    ______ ____
ROOT
ATOM      1  O   HOH     1      23.380  15.197  54.514  0.00  0.00    +0.000 OA
ENDROOT
TORSDOF 0
REMARK  Name = ../refined-set-2016/2w08/2w08_pocket.pdb
REMARK  127 active torsions:
REMARK  status: ('A' for Active; 'I' for Inactive)
REMARK    1  A    between atoms: _1  and  _3
REMARK    2  A    between atoms: _3  and  _4
REMARK    3  A    between atoms: _7  and  _9
REMARK    4  A    between atoms: _9  and  _10
REMARK    5  A    between atoms: _9  and  _12
REMARK    6  A    between atoms: _12  and  _13
REMARK    7  A    between atoms: _18  and  _19
REMARK    8  A    between atoms: _21  and  _23
REMARK    9  A    between atoms: _23  and  _24
REMARK   10  A    between atoms: _23  and  _26
REMARK   11  A    between atoms: _26  and  _27
REMARK   12  A    between atoms: _29  and  _31
REMARK   13  A    between atoms: _31  and  _32
REMARK   14  A    between atoms: _31  and  _34
REMARK   15  A    between atoms: _34  and  _35
REMARK   16  A    between atoms: _37  and  _39
REMARK   17  A    between atoms: _39  and  _40
REMARK   18  A    between atoms: _39  and  _42
REMARK   19  A    between atoms: _42  and  _43
REMARK   20  A    between atoms: _48  and  _50
REMARK   21  A    between atoms: _50  and  _51
REMARK   22  A    between atoms: _50  and  _53
REMARK   23  A    between atoms: _53  and  _54
REMARK   24  A    between atoms: _57  and  _59
REMARK   25  A    between atoms: _59  and  _60
REMARK   26  A    between atoms: _59  and  _62
REMARK   27  A    between atoms: _62  and  _63
REMARK   28  A    between atoms: _63  and  _64
REMARK   29  A    between atoms: _63  and  _65
REMARK   30  A    between atoms: _64  and  CA_265
REMARK   31  A    between atoms: _68  and  _70
REMARK   32  A    between atoms: _70  and  _71
REMARK   33  A    between atoms: _70  and  _73
REMARK   34  A    between atoms: _73  and  _74
REMARK   35  A    between atoms: _74  and  _75
REMARK   36  A    between atoms: _78  and  _80
REMARK   37  A    between atoms: _80  and  _81
REMARK   38  A    between atoms: _80  and  _83
REMARK   39  A    between atoms: _83  and  _84
REMARK   40  A    between atoms: _87  and  _89
REMARK   41  A    between atoms: _89  and  _90
REMARK   42  A    between atoms: _89  and  _92
REMARK   43  A    between atoms: _95  and  _97
REMARK   44  A    between atoms: _97  and  _98
REMARK   45  A    between atoms: _97  and  _100
REMARK   46  A    between atoms: _100  and  _101
REMARK   47  A    between atoms: _106  and  _107
REMARK   48  A    between atoms: _109  and  _111
REMARK   49  A    between atoms: _111  and  _112
REMARK   50  A    between atoms: _111  and  _114
REMARK   51  A    between atoms: _114  and  _115
REMARK   52  A    between atoms: _115  and  _116
REMARK   53  A    between atoms: _116  and  _117
REMARK   54  A    between atoms: _117  and  _118
REMARK   55  A    between atoms: _122  and  _124
REMARK   56  A    between atoms: _124  and  _125
REMARK   57  A    between atoms: _124  and  _127
REMARK   58  A    between atoms: _127  and  _128
REMARK   59  A    between atoms: _128  and  _129
REMARK   60  A    between atoms: _132  and  _134
REMARK   61  A    between atoms: _134  and  _135
REMARK   62  A    between atoms: _134  and  _137
REMARK   63  A    between atoms: _137  and  _138
REMARK   64  A    between atoms: _140  and  _142
REMARK   65  A    between atoms: _142  and  _143
REMARK   66  A    between atoms: _142  and  _145
REMARK   67  A    between atoms: _145  and  _146
REMARK   68  A    between atoms: _151  and  _152
REMARK   69  A    between atoms: _154  and  _156
REMARK   70  A    between atoms: _156  and  _157
REMARK   71  A    between atoms: _156  and  _159
REMARK   72  A    between atoms: _159  and  _160
REMARK   73  A    between atoms: _160  and  _161
REMARK   74  A    between atoms: _161  and  _162
REMARK   75  A    between atoms: _171  and  _173
REMARK   76  A    between atoms: _173  and  _174
REMARK   77  A    between atoms: _173  and  _176
REMARK   78  A    between atoms: _176  and  _177
REMARK   79  A    between atoms: _177  and  _178
REMARK   80  A    between atoms: _178  and  _179
REMARK   81  A    between atoms: _179  and  _180
REMARK   82  A    between atoms: _184  and  _186
REMARK   83  A    between atoms: _186  and  _187
REMARK   84  A    between atoms: _186  and  _189
REMARK   85  A    between atoms: _189  and  _190
REMARK   86  A    between atoms: _190  and  _191
REMARK   87  A    between atoms: _191  and  _192
REMARK   88  A    between atoms: _192  and  CA_266
REMARK   89  A    between atoms: _194  and  _196
REMARK   90  A    between atoms: _196  and  _197
REMARK   91  A    between atoms: _196  and  _199
REMARK   92  A    between atoms: _197  and  _198
REMARK   93  A    between atoms: _197  and  _206
REMARK   94  A    between atoms: _198  and  CA_265
REMARK   95  A    between atoms: _199  and  _200
REMARK   96  A    between atoms: _200  and  _201
REMARK   97  A    between atoms: _206  and  _208
REMARK   98  A    between atoms: _208  and  _209
REMARK   99  A    between atoms: _208  and  _211
REMARK  100  A    between atoms: _211  and  _212
REMARK  101  A    between atoms: _215  and  _217
REMARK  102  A    between atoms: _217  and  _218
REMARK  103  A    between atoms: _217  and  _220
REMARK  104  A    between atoms: _220  and  _221
REMARK  105  A    between atoms: _223  and  _225
REMARK  106  A    between atoms: _225  and  _226
REMARK  107  A    between atoms: _225  and  _228
REMARK  108  A    between atoms: _228  and  _229
REMARK  109  A    between atoms: _229  and  _230
REMARK  110  A    between atoms: _230  and  _231
REMARK  111  A    between atoms: _231  and  _232
REMARK  112  A    between atoms: _236  and  _238
REMARK  113  A    between atoms: _238  and  _239
REMARK  114  A    between atoms: _238  and  _241
REMARK  115  A    between atoms: _241  and  _242
REMARK  116  A    between atoms: _245  and  _247
REMARK  117  A    between atoms: _247  and  _248
REMARK  118  A    between atoms: _247  and  _250
REMARK  119  A    between atoms: _250  and  _251
REMARK  120  A    between atoms: _253  and  _255
REMARK  121  A    between atoms: _255  and  _256
REMARK  122  A    between atoms: _255  and  _258
REMARK  123  A    between atoms: _258  and  _259
REMARK  124  A    between atoms: _259  and  _260
REMARK  125  A    between atoms: _260  and  _261
REMARK  126  A    between atoms: _260  and  _262
REMARK  127  A    between atoms: _261  and  CA_266
REMARK                            x       y       z     vdW  Elec       q    Type
REMARK                         _______ _______ _______ _____ _____    ______ ____
ROOT
ATOM      1  O   HOH     1      24.594  11.205  49.452  0.00  0.00    +0.000 OA
ENDROOT
TORSDOF 0
REMARK  Name = ../refined-set-2016/2w08/2w08_pocket.pdb
REMARK  127 active torsions:
REMARK  status: ('A' for Active; 'I' for Inactive)
REMARK    1  A    between atoms: _1  and  _3
REMARK    2  A    between atoms: _3  and  _4
REMARK    3  A    between atoms: _7  and  _9
REMARK    4  A    between atoms: _9  and  _10
REMARK    5  A    between atoms: _9  and  _12
REMARK    6  A    between atoms: _12  and  _13
REMARK    7  A    between atoms: _18  and  _19
REMARK    8  A    between atoms: _21  and  _23
REMARK    9  A    between atoms: _23  and  _24
REMARK   10  A    between atoms: _23  and  _26
REMARK   11  A    between atoms: _26  and  _27
REMARK   12  A    between atoms: _29  and  _31
REMARK   13  A    between atoms: _31  and  _32
REMARK   14  A    between atoms: _31  and  _34
REMARK   15  A    between atoms: _34  and  _35
REMARK   16  A    between atoms: _37  and  _39
REMARK   17  A    between atoms: _39  and  _40
REMARK   18  A    between atoms: _39  and  _42
REMARK   19  A    between atoms: _42  and  _43
REMARK   20  A    between atoms: _48  and  _50
REMARK   21  A    between atoms: _50  and  _51
REMARK   22  A    between atoms: _50  and  _53
REMARK   23  A    between atoms: _53  and  _54
REMARK   24  A    between atoms: _57  and  _59
REMARK   25  A    between atoms: _59  and  _60
REMARK   26  A    between atoms: _59  and  _62
REMARK   27  A    between atoms: _62  and  _63
REMARK   28  A    between atoms: _63  and  _64
REMARK   29  A    between atoms: _63  and  _65
REMARK   30  A    between atoms: _64  and  CA_265
REMARK   31  A    between atoms: _68  and  _70
REMARK   32  A    between atoms: _70  and  _71
REMARK   33  A    between atoms: _70  and  _73
REMARK   34  A    between atoms: _73  and  _74
REMARK   35  A    between atoms: _74  and  _75
REMARK   36  A    between atoms: _78  and  _80
REMARK   37  A    between atoms: _80  and  _81
REMARK   38  A    between atoms: _80  and  _83
REMARK   39  A    between atoms: _83  and  _84
REMARK   40  A    between atoms: _87  and  _89
REMARK   41  A    between atoms: _89  and  _90
REMARK   42  A    between atoms: _89  and  _92
REMARK   43  A    between atoms: _95  and  _97
REMARK   44  A    between atoms: _97  and  _98
REMARK   45  A    between atoms: _97  and  _100
REMARK   46  A    between atoms: _100  and  _101
REMARK   47  A    between atoms: _106  and  _107
REMARK   48  A    between atoms: _109  and  _111
REMARK   49  A    between atoms: _111  and  _112
REMARK   50  A    between atoms: _111  and  _114
REMARK   51  A    between atoms: _114  and  _115
REMARK   52  A    between atoms: _115  and  _116
REMARK   53  A    between atoms: _116  and  _117
REMARK   54  A    between atoms: _117  and  _118
REMARK   55  A    between atoms: _122  and  _124
REMARK   56  A    between atoms: _124  and  _125
REMARK   57  A    between atoms: _124  and  _127
REMARK   58  A    between atoms: _127  and  _128
REMARK   59  A    between atoms: _128  and  _129
REMARK   60  A    between atoms: _132  and  _134
REMARK   61  A    between atoms: _134  and  _135
REMARK   62  A    between atoms: _134  and  _137
REMARK   63  A    between atoms: _137  and  _138
REMARK   64  A    between atoms: _140  and  _142
REMARK   65  A    between atoms: _142  and  _143
REMARK   66  A    between atoms: _142  and  _145
REMARK   67  A    between atoms: _145  and  _146
REMARK   68  A    between atoms: _151  and  _152
REMARK   69  A    between atoms: _154  and  _156
REMARK   70  A    between atoms: _156  and  _157
REMARK   71  A    between atoms: _156  and  _159
REMARK   72  A    between atoms: _159  and  _160
REMARK   73  A    between atoms: _160  and  _161
REMARK   74  A    between atoms: _161  and  _162
REMARK   75  A    between atoms: _171  and  _173
REMARK   76  A    between atoms: _173  and  _174
REMARK   77  A    between atoms: _173  and  _176
REMARK   78  A    between atoms: _176  and  _177
REMARK   79  A    between atoms: _177  and  _178
REMARK   80  A    between atoms: _178  and  _179
REMARK   81  A    between atoms: _179  and  _180
REMARK   82  A    between atoms: _184  and  _186
REMARK   83  A    between atoms: _186  and  _187
REMARK   84  A    between atoms: _186  and  _189
REMARK   85  A    between atoms: _189  and  _190
REMARK   86  A    between atoms: _190  and  _191
REMARK   87  A    between atoms: _191  and  _192
REMARK   88  A    between atoms: _192  and  CA_266
REMARK   89  A    between atoms: _194  and  _196
REMARK   90  A    between atoms: _196  and  _197
REMARK   91  A    between atoms: _196  and  _199
REMARK   92  A    between atoms: _197  and  _198
REMARK   93  A    between atoms: _197  and  _206
REMARK   94  A    between atoms: _198  and  CA_265
REMARK   95  A    between atoms: _199  and  _200
REMARK   96  A    between atoms: _200  and  _201
REMARK   97  A    between atoms: _206  and  _208
REMARK   98  A    between atoms: _208  and  _209
REMARK   99  A    between atoms: _208  and  _211
REMARK  100  A    between atoms: _211  and  _212
REMARK  101  A    between atoms: _215  and  _217
REMARK  102  A    between atoms: _217  and  _218
REMARK  103  A    between atoms: _217  and  _220
REMARK  104  A    between atoms: _220  and  _221
REMARK  105  A    between atoms: _223  and  _225
REMARK  106  A    between atoms: _225  and  _226
REMARK  107  A    between atoms: _225  and  _228
REMARK  108  A    between atoms: _228  and  _229
REMARK  109  A    between atoms: _229  and  _230
REMARK  110  A    between atoms: _230  and  _231
REMARK  111  A    between atoms: _231  and  _232
REMARK  112  A    between atoms: _236  and  _238
REMARK  113  A    between atoms: _238  and  _239
REMARK  114  A    between atoms: _238  and  _241
REMARK  115  A    between atoms: _241  and  _242
REMARK  116  A    between atoms: _245  and  _247
REMARK  117  A    between atoms: _247  and  _248
REMARK  118  A    between atoms: _247  and  _250
REMARK  119  A    between atoms: _250  and  _251
REMARK  120  A    between atoms: _253  and  _255
REMARK  121  A    between atoms: _255  and  _256
REMARK  122  A    between atoms: _255  and  _258
REMARK  123  A    between atoms: _258  and  _259
REMARK  124  A    between atoms: _259  and  _260
REMARK  125  A    between atoms: _260  and  _261
REMARK  126  A    between atoms: _260  and  _262
REMARK  127  A    between atoms: _261  and  CA_266
REMARK                            x       y       z     vdW  Elec       q    Type
REMARK                         _______ _______ _______ _____ _____    ______ ____
ROOT
ATOM      1  O   HOH     1      11.041  16.536  57.970  0.00  0.00    +0.000 OA
ENDROOT
TORSDOF 0
REMARK  Name = ../refined-set-2016/2w08/2w08_pocket.pdb
REMARK  127 active torsions:
REMARK  status: ('A' for Active; 'I' for Inactive)
REMARK    1  A    between atoms: _1  and  _3
REMARK    2  A    between atoms: _3  and  _4
REMARK    3  A    between atoms: _7  and  _9
REMARK    4  A    between atoms: _9  and  _10
REMARK    5  A    between atoms: _9  and  _12
REMARK    6  A    between atoms: _12  and  _13
REMARK    7  A    between atoms: _18  and  _19
REMARK    8  A    between atoms: _21  and  _23
REMARK    9  A    between atoms: _23  and  _24
REMARK   10  A    between atoms: _23  and  _26
REMARK   11  A    between atoms: _26  and  _27
REMARK   12  A    between atoms: _29  and  _31
REMARK   13  A    between atoms: _31  and  _32
REMARK   14  A    between atoms: _31  and  _34
REMARK   15  A    between atoms: _34  and  _35
REMARK   16  A    between atoms: _37  and  _39
REMARK   17  A    between atoms: _39  and  _40
REMARK   18  A    between atoms: _39  and  _42
REMARK   19  A    between atoms: _42  and  _43
REMARK   20  A    between atoms: _48  and  _50
REMARK   21  A    between atoms: _50  and  _51
REMARK   22  A    between atoms: _50  and  _53
REMARK   23  A    between atoms: _53  and  _54
REMARK   24  A    between atoms: _57  and  _59
REMARK   25  A    between atoms: _59  and  _60
REMARK   26  A    between atoms: _59  and  _62
REMARK   27  A    between atoms: _62  and  _63
REMARK   28  A    between atoms: _63  and  _64
REMARK   29  A    between atoms: _63  and  _65
REMARK   30  A    between atoms: _64  and  CA_265
REMARK   31  A    between atoms: _68  and  _70
REMARK   32  A    between atoms: _70  and  _71
REMARK   33  A    between atoms: _70  and  _73
REMARK   34  A    between atoms: _73  and  _74
REMARK   35  A    between atoms: _74  and  _75
REMARK   36  A    between atoms: _78  and  _80
REMARK   37  A    between atoms: _80  and  _81
REMARK   38  A    between atoms: _80  and  _83
REMARK   39  A    between atoms: _83  and  _84
REMARK   40  A    between atoms: _87  and  _89
REMARK   41  A    between atoms: _89  and  _90
REMARK   42  A    between atoms: _89  and  _92
REMARK   43  A    between atoms: _95  and  _97
REMARK   44  A    between atoms: _97  and  _98
REMARK   45  A    between atoms: _97  and  _100
REMARK   46  A    between atoms: _100  and  _101
REMARK   47  A    between atoms: _106  and  _107
REMARK   48  A    between atoms: _109  and  _111
REMARK   49  A    between atoms: _111  and  _112
REMARK   50  A    between atoms: _111  and  _114
REMARK   51  A    between atoms: _114  and  _115
REMARK   52  A    between atoms: _115  and  _116
REMARK   53  A    between atoms: _116  and  _117
REMARK   54  A    between atoms: _117  and  _118
REMARK   55  A    between atoms: _122  and  _124
REMARK   56  A    between atoms: _124  and  _125
REMARK   57  A    between atoms: _124  and  _127
REMARK   58  A    between atoms: _127  and  _128
REMARK   59  A    between atoms: _128  and  _129
REMARK   60  A    between atoms: _132  and  _134
REMARK   61  A    between atoms: _134  and  _135
REMARK   62  A    between atoms: _134  and  _137
REMARK   63  A    between atoms: _137  and  _138
REMARK   64  A    between atoms: _140  and  _142
REMARK   65  A    between atoms: _142  and  _143
REMARK   66  A    between atoms: _142  and  _145
REMARK   67  A    between atoms: _145  and  _146
REMARK   68  A    between atoms: _151  and  _152
REMARK   69  A    between atoms: _154  and  _156
REMARK   70  A    between atoms: _156  and  _157
REMARK   71  A    between atoms: _156  and  _159
REMARK   72  A    between atoms: _159  and  _160
REMARK   73  A    between atoms: _160  and  _161
REMARK   74  A    between atoms: _161  and  _162
REMARK   75  A    between atoms: _171  and  _173
REMARK   76  A    between atoms: _173  and  _174
REMARK   77  A    between atoms: _173  and  _176
REMARK   78  A    between atoms: _176  and  _177
REMARK   79  A    between atoms: _177  and  _178
REMARK   80  A    between atoms: _178  and  _179
REMARK   81  A    between atoms: _179  and  _180
REMARK   82  A    between atoms: _184  and  _186
REMARK   83  A    between atoms: _186  and  _187
REMARK   84  A    between atoms: _186  and  _189
REMARK   85  A    between atoms: _189  and  _190
REMARK   86  A    between atoms: _190  and  _191
REMARK   87  A    between atoms: _191  and  _192
REMARK   88  A    between atoms: _192  and  CA_266
REMARK   89  A    between atoms: _194  and  _196
REMARK   90  A    between atoms: _196  and  _197
REMARK   91  A    between atoms: _196  and  _199
REMARK   92  A    between atoms: _197  and  _198
REMARK   93  A    between atoms: _197  and  _206
REMARK   94  A    between atoms: _198  and  CA_265
REMARK   95  A    between atoms: _199  and  _200
REMARK   96  A    between atoms: _200  and  _201
REMARK   97  A    between atoms: _206  and  _208
REMARK   98  A    between atoms: _208  and  _209
REMARK   99  A    between atoms: _208  and  _211
REMARK  100  A    between atoms: _211  and  _212
REMARK  101  A    between atoms: _215  and  _217
REMARK  102  A    between atoms: _217  and  _218
REMARK  103  A    between atoms: _217  and  _220
REMARK  104  A    between atoms: _220  and  _221
REMARK  105  A    between atoms: _223  and  _225
REMARK  106  A    between atoms: _225  and  _226
REMARK  107  A    between atoms: _225  and  _228
REMARK  108  A    between atoms: _228  and  _229
REMARK  109  A    between atoms: _229  and  _230
REMARK  110  A    between atoms: _230  and  _231
REMARK  111  A    between atoms: _231  and  _232
REMARK  112  A    between atoms: _236  and  _238
REMARK  113  A    between atoms: _238  and  _239
REMARK  114  A    between atoms: _238  and  _241
REMARK  115  A    between atoms: _241  and  _242
REMARK  116  A    between atoms: _245  and  _247
REMARK  117  A    between atoms: _247  and  _248
REMARK  118  A    between atoms: _247  and  _250
REMARK  119  A    between atoms: _250  and  _251
REMARK  120  A    between atoms: _253  and  _255
REMARK  121  A    between atoms: _255  and  _256
REMARK  122  A    between atoms: _255  and  _258
REMARK  123  A    between atoms: _258  and  _259
REMARK  124  A    between atoms: _259  and  _260
REMARK  125  A    between atoms: _260  and  _261
REMARK  126  A    between atoms: _260  and  _262
REMARK  127  A    between atoms: _261  and  CA_266
REMARK                            x       y       z     vdW  Elec       q    Type
REMARK                         _______ _______ _______ _____ _____    ______ ____
ROOT
ATOM      1  O   HOH     1      15.102  16.338  66.137  0.00  0.00    +0.000 OA
ENDROOT
TORSDOF 0
REMARK  Name = ../refined-set-2016/2w08/2w08_pocket.pdb
REMARK  127 active torsions:
REMARK  status: ('A' for Active; 'I' for Inactive)
REMARK    1  A    between atoms: _1  and  _3
REMARK    2  A    between atoms: _3  and  _4
REMARK    3  A    between atoms: _7  and  _9
REMARK    4  A    between atoms: _9  and  _10
REMARK    5  A    between atoms: _9  and  _12
REMARK    6  A    between atoms: _12  and  _13
REMARK    7  A    between atoms: _18  and  _19
REMARK    8  A    between atoms: _21  and  _23
REMARK    9  A    between atoms: _23  and  _24
REMARK   10  A    between atoms: _23  and  _26
REMARK   11  A    between atoms: _26  and  _27
REMARK   12  A    between atoms: _29  and  _31
REMARK   13  A    between atoms: _31  and  _32
REMARK   14  A    between atoms: _31  and  _34
REMARK   15  A    between atoms: _34  and  _35
REMARK   16  A    between atoms: _37  and  _39
REMARK   17  A    between atoms: _39  and  _40
REMARK   18  A    between atoms: _39  and  _42
REMARK   19  A    between atoms: _42  and  _43
REMARK   20  A    between atoms: _48  and  _50
REMARK   21  A    between atoms: _50  and  _51
REMARK   22  A    between atoms: _50  and  _53
REMARK   23  A    between atoms: _53  and  _54
REMARK   24  A    between atoms: _57  and  _59
REMARK   25  A    between atoms: _59  and  _60
REMARK   26  A    between atoms: _59  and  _62
REMARK   27  A    between atoms: _62  and  _63
REMARK   28  A    between atoms: _63  and  _64
REMARK   29  A    between atoms: _63  and  _65
REMARK   30  A    between atoms: _64  and  CA_265
REMARK   31  A    between atoms: _68  and  _70
REMARK   32  A    between atoms: _70  and  _71
REMARK   33  A    between atoms: _70  and  _73
REMARK   34  A    between atoms: _73  and  _74
REMARK   35  A    between atoms: _74  and  _75
REMARK   36  A    between atoms: _78  and  _80
REMARK   37  A    between atoms: _80  and  _81
REMARK   38  A    between atoms: _80  and  _83
REMARK   39  A    between atoms: _83  and  _84
REMARK   40  A    between atoms: _87  and  _89
REMARK   41  A    between atoms: _89  and  _90
REMARK   42  A    between atoms: _89  and  _92
REMARK   43  A    between atoms: _95  and  _97
REMARK   44  A    between atoms: _97  and  _98
REMARK   45  A    between atoms: _97  and  _100
REMARK   46  A    between atoms: _100  and  _101
REMARK   47  A    between atoms: _106  and  _107
REMARK   48  A    between atoms: _109  and  _111
REMARK   49  A    between atoms: _111  and  _112
REMARK   50  A    between atoms: _111  and  _114
REMARK   51  A    between atoms: _114  and  _115
REMARK   52  A    between atoms: _115  and  _116
REMARK   53  A    between atoms: _116  and  _117
REMARK   54  A    between atoms: _117  and  _118
REMARK   55  A    between atoms: _122  and  _124
REMARK   56  A    between atoms: _124  and  _125
REMARK   57  A    between atoms: _124  and  _127
REMARK   58  A    between atoms: _127  and  _128
REMARK   59  A    between atoms: _128  and  _129
REMARK   60  A    between atoms: _132  and  _134
REMARK   61  A    between atoms: _134  and  _135
REMARK   62  A    between atoms: _134  and  _137
REMARK   63  A    between atoms: _137  and  _138
REMARK   64  A    between atoms: _140  and  _142
REMARK   65  A    between atoms: _142  and  _143
REMARK   66  A    between atoms: _142  and  _145
REMARK   67  A    between atoms: _145  and  _146
REMARK   68  A    between atoms: _151  and  _152
REMARK   69  A    between atoms: _154  and  _156
REMARK   70  A    between atoms: _156  and  _157
REMARK   71  A    between atoms: _156  and  _159
REMARK   72  A    between atoms: _159  and  _160
REMARK   73  A    between atoms: _160  and  _161
REMARK   74  A    between atoms: _161  and  _162
REMARK   75  A    between atoms: _171  and  _173
REMARK   76  A    between atoms: _173  and  _174
REMARK   77  A    between atoms: _173  and  _176
REMARK   78  A    between atoms: _176  and  _177
REMARK   79  A    between atoms: _177  and  _178
REMARK   80  A    between atoms: _178  and  _179
REMARK   81  A    between atoms: _179  and  _180
REMARK   82  A    between atoms: _184  and  _186
REMARK   83  A    between atoms: _186  and  _187
REMARK   84  A    between atoms: _186  and  _189
REMARK   85  A    between atoms: _189  and  _190
REMARK   86  A    between atoms: _190  and  _191
REMARK   87  A    between atoms: _191  and  _192
REMARK   88  A    between atoms: _192  and  CA_266
REMARK   89  A    between atoms: _194  and  _196
REMARK   90  A    between atoms: _196  and  _197
REMARK   91  A    between atoms: _196  and  _199
REMARK   92  A    between atoms: _197  and  _198
REMARK   93  A    between atoms: _197  and  _206
REMARK   94  A    between atoms: _198  and  CA_265
REMARK   95  A    between atoms: _199  and  _200
REMARK   96  A    between atoms: _200  and  _201
REMARK   97  A    between atoms: _206  and  _208
REMARK   98  A    between atoms: _208  and  _209
REMARK   99  A    between atoms: _208  and  _211
REMARK  100  A    between atoms: _211  and  _212
REMARK  101  A    between atoms: _215  and  _217
REMARK  102  A    between atoms: _217  and  _218
REMARK  103  A    between atoms: _217  and  _220
REMARK  104  A    between atoms: _220  and  _221
REMARK  105  A    between atoms: _223  and  _225
REMARK  106  A    between atoms: _225  and  _226
REMARK  107  A    between atoms: _225  and  _228
REMARK  108  A    between atoms: _228  and  _229
REMARK  109  A    between atoms: _229  and  _230
REMARK  110  A    between atoms: _230  and  _231
REMARK  111  A    between atoms: _231  and  _232
REMARK  112  A    between atoms: _236  and  _238
REMARK  113  A    between atoms: _238  and  _239
REMARK  114  A    between atoms: _238  and  _241
REMARK  115  A    between atoms: _241  and  _242
REMARK  116  A    between atoms: _245  and  _247
REMARK  117  A    between atoms: _247  and  _248
REMARK  118  A    between atoms: _247  and  _250
REMARK  119  A    between atoms: _250  and  _251
REMARK  120  A    between atoms: _253  and  _255
REMARK  121  A    between atoms: _255  and  _256
REMARK  122  A    between atoms: _255  and  _258
REMARK  123  A    between atoms: _258  and  _259
REMARK  124  A    between atoms: _259  and  _260
REMARK  125  A    between atoms: _260  and  _261
REMARK  126  A    between atoms: _260  and  _262
REMARK  127  A    between atoms: _261  and  CA_266
REMARK                            x       y       z     vdW  Elec       q    Type
REMARK                         _______ _______ _______ _____ _____    ______ ____
ROOT
ATOM      1  O   HOH     1      11.333  20.646  59.176  0.00  0.00    +0.000 OA
ENDROOT
TORSDOF 0
REMARK  Name = ../refined-set-2016/2w08/2w08_pocket.pdb
REMARK  127 active torsions:
REMARK  status: ('A' for Active; 'I' for Inactive)
REMARK    1  A    between atoms: _1  and  _3
REMARK    2  A    between atoms: _3  and  _4
REMARK    3  A    between atoms: _7  and  _9
REMARK    4  A    between atoms: _9  and  _10
REMARK    5  A    between atoms: _9  and  _12
REMARK    6  A    between atoms: _12  and  _13
REMARK    7  A    between atoms: _18  and  _19
REMARK    8  A    between atoms: _21  and  _23
REMARK    9  A    between atoms: _23  and  _24
REMARK   10  A    between atoms: _23  and  _26
REMARK   11  A    between atoms: _26  and  _27
REMARK   12  A    between atoms: _29  and  _31
REMARK   13  A    between atoms: _31  and  _32
REMARK   14  A    between atoms: _31  and  _34
REMARK   15  A    between atoms: _34  and  _35
REMARK   16  A    between atoms: _37  and  _39
REMARK   17  A    between atoms: _39  and  _40
REMARK   18  A    between atoms: _39  and  _42
REMARK   19  A    between atoms: _42  and  _43
REMARK   20  A    between atoms: _48  and  _50
REMARK   21  A    between atoms: _50  and  _51
REMARK   22  A    between atoms: _50  and  _53
REMARK   23  A    between atoms: _53  and  _54
REMARK   24  A    between atoms: _57  and  _59
REMARK   25  A    between atoms: _59  and  _60
REMARK   26  A    between atoms: _59  and  _62
REMARK   27  A    between atoms: _62  and  _63
REMARK   28  A    between atoms: _63  and  _64
REMARK   29  A    between atoms: _63  and  _65
REMARK   30  A    between atoms: _64  and  CA_265
REMARK   31  A    between atoms: _68  and  _70
REMARK   32  A    between atoms: _70  and  _71
REMARK   33  A    between atoms: _70  and  _73
REMARK   34  A    between atoms: _73  and  _74
REMARK   35  A    between atoms: _74  and  _75
REMARK   36  A    between atoms: _78  and  _80
REMARK   37  A    between atoms: _80  and  _81
REMARK   38  A    between atoms: _80  and  _83
REMARK   39  A    between atoms: _83  and  _84
REMARK   40  A    between atoms: _87  and  _89
REMARK   41  A    between atoms: _89  and  _90
REMARK   42  A    between atoms: _89  and  _92
REMARK   43  A    between atoms: _95  and  _97
REMARK   44  A    between atoms: _97  and  _98
REMARK   45  A    between atoms: _97  and  _100
REMARK   46  A    between atoms: _100  and  _101
REMARK   47  A    between atoms: _106  and  _107
REMARK   48  A    between atoms: _109  and  _111
REMARK   49  A    between atoms: _111  and  _112
REMARK   50  A    between atoms: _111  and  _114
REMARK   51  A    between atoms: _114  and  _115
REMARK   52  A    between atoms: _115  and  _116
REMARK   53  A    between atoms: _116  and  _117
REMARK   54  A    between atoms: _117  and  _118
REMARK   55  A    between atoms: _122  and  _124
REMARK   56  A    between atoms: _124  and  _125
REMARK   57  A    between atoms: _124  and  _127
REMARK   58  A    between atoms: _127  and  _128
REMARK   59  A    between atoms: _128  and  _129
REMARK   60  A    between atoms: _132  and  _134
REMARK   61  A    between atoms: _134  and  _135
REMARK   62  A    between atoms: _134  and  _137
REMARK   63  A    between atoms: _137  and  _138
REMARK   64  A    between atoms: _140  and  _142
REMARK   65  A    between atoms: _142  and  _143
REMARK   66  A    between atoms: _142  and  _145
REMARK   67  A    between atoms: _145  and  _146
REMARK   68  A    between atoms: _151  and  _152
REMARK   69  A    between atoms: _154  and  _156
REMARK   70  A    between atoms: _156  and  _157
REMARK   71  A    between atoms: _156  and  _159
REMARK   72  A    between atoms: _159  and  _160
REMARK   73  A    between atoms: _160  and  _161
REMARK   74  A    between atoms: _161  and  _162
REMARK   75  A    between atoms: _171  and  _173
REMARK   76  A    between atoms: _173  and  _174
REMARK   77  A    between atoms: _173  and  _176
REMARK   78  A    between atoms: _176  and  _177
REMARK   79  A    between atoms: _177  and  _178
REMARK   80  A    between atoms: _178  and  _179
REMARK   81  A    between atoms: _179  and  _180
REMARK   82  A    between atoms: _184  and  _186
REMARK   83  A    between atoms: _186  and  _187
REMARK   84  A    between atoms: _186  and  _189
REMARK   85  A    between atoms: _189  and  _190
REMARK   86  A    between atoms: _190  and  _191
REMARK   87  A    between atoms: _191  and  _192
REMARK   88  A    between atoms: _192  and  CA_266
REMARK   89  A    between atoms: _194  and  _196
REMARK   90  A    between atoms: _196  and  _197
REMARK   91  A    between atoms: _196  and  _199
REMARK   92  A    between atoms: _197  and  _198
REMARK   93  A    between atoms: _197  and  _206
REMARK   94  A    between atoms: _198  and  CA_265
REMARK   95  A    between atoms: _199  and  _200
REMARK   96  A    between atoms: _200  and  _201
REMARK   97  A    between atoms: _206  and  _208
REMARK   98  A    between atoms: _208  and  _209
REMARK   99  A    between atoms: _208  and  _211
REMARK  100  A    between atoms: _211  and  _212
REMARK  101  A    between atoms: _215  and  _217
REMARK  102  A    between atoms: _217  and  _218
REMARK  103  A    between atoms: _217  and  _220
REMARK  104  A    between atoms: _220  and  _221
REMARK  105  A    between atoms: _223  and  _225
REMARK  106  A    between atoms: _225  and  _226
REMARK  107  A    between atoms: _225  and  _228
REMARK  108  A    between atoms: _228  and  _229
REMARK  109  A    between atoms: _229  and  _230
REMARK  110  A    between atoms: _230  and  _231
REMARK  111  A    between atoms: _231  and  _232
REMARK  112  A    between atoms: _236  and  _238
REMARK  113  A    between atoms: _238  and  _239
REMARK  114  A    between atoms: _238  and  _241
REMARK  115  A    between atoms: _241  and  _242
REMARK  116  A    between atoms: _245  and  _247
REMARK  117  A    between atoms: _247  and  _248
REMARK  118  A    between atoms: _247  and  _250
REMARK  119  A    between atoms: _250  and  _251
REMARK  120  A    between atoms: _253  and  _255
REMARK  121  A    between atoms: _255  and  _256
REMARK  122  A    between atoms: _255  and  _258
REMARK  123  A    between atoms: _258  and  _259
REMARK  124  A    between atoms: _259  and  _260
REMARK  125  A    between atoms: _260  and  _261
REMARK  126  A    between atoms: _260  and  _262
REMARK  127  A    between atoms: _261  and  CA_266
REMARK                            x       y       z     vdW  Elec       q    Type
REMARK                         _______ _______ _______ _____ _____    ______ ____
ROOT
ATOM      1  O   HOH     1      13.110  18.890  56.054  0.00  0.00    +0.000 OA
ENDROOT
TORSDOF 0
REMARK  Name = ../refined-set-2016/2w08/2w08_pocket.pdb
REMARK  127 active torsions:
REMARK  status: ('A' for Active; 'I' for Inactive)
REMARK    1  A    between atoms: _1  and  _3
REMARK    2  A    between atoms: _3  and  _4
REMARK    3  A    between atoms: _7  and  _9
REMARK    4  A    between atoms: _9  and  _10
REMARK    5  A    between atoms: _9  and  _12
REMARK    6  A    between atoms: _12  and  _13
REMARK    7  A    between atoms: _18  and  _19
REMARK    8  A    between atoms: _21  and  _23
REMARK    9  A    between atoms: _23  and  _24
REMARK   10  A    between atoms: _23  and  _26
REMARK   11  A    between atoms: _26  and  _27
REMARK   12  A    between atoms: _29  and  _31
REMARK   13  A    between atoms: _31  and  _32
REMARK   14  A    between atoms: _31  and  _34
REMARK   15  A    between atoms: _34  and  _35
REMARK   16  A    between atoms: _37  and  _39
REMARK   17  A    between atoms: _39  and  _40
REMARK   18  A    between atoms: _39  and  _42
REMARK   19  A    between atoms: _42  and  _43
REMARK   20  A    between atoms: _48  and  _50
REMARK   21  A    between atoms: _50  and  _51
REMARK   22  A    between atoms: _50  and  _53
REMARK   23  A    between atoms: _53  and  _54
REMARK   24  A    between atoms: _57  and  _59
REMARK   25  A    between atoms: _59  and  _60
REMARK   26  A    between atoms: _59  and  _62
REMARK   27  A    between atoms: _62  and  _63
REMARK   28  A    between atoms: _63  and  _64
REMARK   29  A    between atoms: _63  and  _65
REMARK   30  A    between atoms: _64  and  CA_265
REMARK   31  A    between atoms: _68  and  _70
REMARK   32  A    between atoms: _70  and  _71
REMARK   33  A    between atoms: _70  and  _73
REMARK   34  A    between atoms: _73  and  _74
REMARK   35  A    between atoms: _74  and  _75
REMARK   36  A    between atoms: _78  and  _80
REMARK   37  A    between atoms: _80  and  _81
REMARK   38  A    between atoms: _80  and  _83
REMARK   39  A    between atoms: _83  and  _84
REMARK   40  A    between atoms: _87  and  _89
REMARK   41  A    between atoms: _89  and  _90
REMARK   42  A    between atoms: _89  and  _92
REMARK   43  A    between atoms: _95  and  _97
REMARK   44  A    between atoms: _97  and  _98
REMARK   45  A    between atoms: _97  and  _100
REMARK   46  A    between atoms: _100  and  _101
REMARK   47  A    between atoms: _106  and  _107
REMARK   48  A    between atoms: _109  and  _111
REMARK   49  A    between atoms: _111  and  _112
REMARK   50  A    between atoms: _111  and  _114
REMARK   51  A    between atoms: _114  and  _115
REMARK   52  A    between atoms: _115  and  _116
REMARK   53  A    between atoms: _116  and  _117
REMARK   54  A    between atoms: _117  and  _118
REMARK   55  A    between atoms: _122  and  _124
REMARK   56  A    between atoms: _124  and  _125
REMARK   57  A    between atoms: _124  and  _127
REMARK   58  A    between atoms: _127  and  _128
REMARK   59  A    between atoms: _128  and  _129
REMARK   60  A    between atoms: _132  and  _134
REMARK   61  A    between atoms: _134  and  _135
REMARK   62  A    between atoms: _134  and  _137
REMARK   63  A    between atoms: _137  and  _138
REMARK   64  A    between atoms: _140  and  _142
REMARK   65  A    between atoms: _142  and  _143
REMARK   66  A    between atoms: _142  and  _145
REMARK   67  A    between atoms: _145  and  _146
REMARK   68  A    between atoms: _151  and  _152
REMARK   69  A    between atoms: _154  and  _156
REMARK   70  A    between atoms: _156  and  _157
REMARK   71  A    between atoms: _156  and  _159
REMARK   72  A    between atoms: _159  and  _160
REMARK   73  A    between atoms: _160  and  _161
REMARK   74  A    between atoms: _161  and  _162
REMARK   75  A    between atoms: _171  and  _173
REMARK   76  A    between atoms: _173  and  _174
REMARK   77  A    between atoms: _173  and  _176
REMARK   78  A    between atoms: _176  and  _177
REMARK   79  A    between atoms: _177  and  _178
REMARK   80  A    between atoms: _178  and  _179
REMARK   81  A    between atoms: _179  and  _180
REMARK   82  A    between atoms: _184  and  _186
REMARK   83  A    between atoms: _186  and  _187
REMARK   84  A    between atoms: _186  and  _189
REMARK   85  A    between atoms: _189  and  _190
REMARK   86  A    between atoms: _190  and  _191
REMARK   87  A    between atoms: _191  and  _192
REMARK   88  A    between atoms: _192  and  CA_266
REMARK   89  A    between atoms: _194  and  _196
REMARK   90  A    between atoms: _196  and  _197
REMARK   91  A    between atoms: _196  and  _199
REMARK   92  A    between atoms: _197  and  _198
REMARK   93  A    between atoms: _197  and  _206
REMARK   94  A    between atoms: _198  and  CA_265
REMARK   95  A    between atoms: _199  and  _200
REMARK   96  A    between atoms: _200  and  _201
REMARK   97  A    between atoms: _206  and  _208
REMARK   98  A    between atoms: _208  and  _209
REMARK   99  A    between atoms: _208  and  _211
REMARK  100  A    between atoms: _211  and  _212
REMARK  101  A    between atoms: _215  and  _217
REMARK  102  A    between atoms: _217  and  _218
REMARK  103  A    between atoms: _217  and  _220
REMARK  104  A    between atoms: _220  and  _221
REMARK  105  A    between atoms: _223  and  _225
REMARK  106  A    between atoms: _225  and  _226
REMARK  107  A    between atoms: _225  and  _228
REMARK  108  A    between atoms: _228  and  _229
REMARK  109  A    between atoms: _229  and  _230
REMARK  110  A    between atoms: _230  and  _231
REMARK  111  A    between atoms: _231  and  _232
REMARK  112  A    between atoms: _236  and  _238
REMARK  113  A    between atoms: _238  and  _239
REMARK  114  A    between atoms: _238  and  _241
REMARK  115  A    between atoms: _241  and  _242
REMARK  116  A    between atoms: _245  and  _247
REMARK  117  A    between atoms: _247  and  _248
REMARK  118  A    between atoms: _247  and  _250
REMARK  119  A    between atoms: _250  and  _251
REMARK  120  A    between atoms: _253  and  _255
REMARK  121  A    between atoms: _255  and  _256
REMARK  122  A    between atoms: _255  and  _258
REMARK  123  A    between atoms: _258  and  _259
REMARK  124  A    between atoms: _259  and  _260
REMARK  125  A    between atoms: _260  and  _261
REMARK  126  A    between atoms: _260  and  _262
REMARK  127  A    between atoms: _261  and  CA_266
REMARK                            x       y       z     vdW  Elec       q    Type
REMARK                         _______ _______ _______ _____ _____    ______ ____
ROOT
ATOM      1  O   HOH     1      13.032  16.535  47.858  0.00  0.00    +0.000 OA
ENDROOT
TORSDOF 0
REMARK  Name = ../refined-set-2016/2w08/2w08_pocket.pdb
REMARK  127 active torsions:
REMARK  status: ('A' for Active; 'I' for Inactive)
REMARK    1  A    between atoms: _1  and  _3
REMARK    2  A    between atoms: _3  and  _4
REMARK    3  A    between atoms: _7  and  _9
REMARK    4  A    between atoms: _9  and  _10
REMARK    5  A    between atoms: _9  and  _12
REMARK    6  A    between atoms: _12  and  _13
REMARK    7  A    between atoms: _18  and  _19
REMARK    8  A    between atoms: _21  and  _23
REMARK    9  A    between atoms: _23  and  _24
REMARK   10  A    between atoms: _23  and  _26
REMARK   11  A    between atoms: _26  and  _27
REMARK   12  A    between atoms: _29  and  _31
REMARK   13  A    between atoms: _31  and  _32
REMARK   14  A    between atoms: _31  and  _34
REMARK   15  A    between atoms: _34  and  _35
REMARK   16  A    between atoms: _37  and  _39
REMARK   17  A    between atoms: _39  and  _40
REMARK   18  A    between atoms: _39  and  _42
REMARK   19  A    between atoms: _42  and  _43
REMARK   20  A    between atoms: _48  and  _50
REMARK   21  A    between atoms: _50  and  _51
REMARK   22  A    between atoms: _50  and  _53
REMARK   23  A    between atoms: _53  and  _54
REMARK   24  A    between atoms: _57  and  _59
REMARK   25  A    between atoms: _59  and  _60
REMARK   26  A    between atoms: _59  and  _62
REMARK   27  A    between atoms: _62  and  _63
REMARK   28  A    between atoms: _63  and  _64
REMARK   29  A    between atoms: _63  and  _65
REMARK   30  A    between atoms: _64  and  CA_265
REMARK   31  A    between atoms: _68  and  _70
REMARK   32  A    between atoms: _70  and  _71
REMARK   33  A    between atoms: _70  and  _73
REMARK   34  A    between atoms: _73  and  _74
REMARK   35  A    between atoms: _74  and  _75
REMARK   36  A    between atoms: _78  and  _80
REMARK   37  A    between atoms: _80  and  _81
REMARK   38  A    between atoms: _80  and  _83
REMARK   39  A    between atoms: _83  and  _84
REMARK   40  A    between atoms: _87  and  _89
REMARK   41  A    between atoms: _89  and  _90
REMARK   42  A    between atoms: _89  and  _92
REMARK   43  A    between atoms: _95  and  _97
REMARK   44  A    between atoms: _97  and  _98
REMARK   45  A    between atoms: _97  and  _100
REMARK   46  A    between atoms: _100  and  _101
REMARK   47  A    between atoms: _106  and  _107
REMARK   48  A    between atoms: _109  and  _111
REMARK   49  A    between atoms: _111  and  _112
REMARK   50  A    between atoms: _111  and  _114
REMARK   51  A    between atoms: _114  and  _115
REMARK   52  A    between atoms: _115  and  _116
REMARK   53  A    between atoms: _116  and  _117
REMARK   54  A    between atoms: _117  and  _118
REMARK   55  A    between atoms: _122  and  _124
REMARK   56  A    between atoms: _124  and  _125
REMARK   57  A    between atoms: _124  and  _127
REMARK   58  A    between atoms: _127  and  _128
REMARK   59  A    between atoms: _128  and  _129
REMARK   60  A    between atoms: _132  and  _134
REMARK   61  A    between atoms: _134  and  _135
REMARK   62  A    between atoms: _134  and  _137
REMARK   63  A    between atoms: _137  and  _138
REMARK   64  A    between atoms: _140  and  _142
REMARK   65  A    between atoms: _142  and  _143
REMARK   66  A    between atoms: _142  and  _145
REMARK   67  A    between atoms: _145  and  _146
REMARK   68  A    between atoms: _151  and  _152
REMARK   69  A    between atoms: _154  and  _156
REMARK   70  A    between atoms: _156  and  _157
REMARK   71  A    between atoms: _156  and  _159
REMARK   72  A    between atoms: _159  and  _160
REMARK   73  A    between atoms: _160  and  _161
REMARK   74  A    between atoms: _161  and  _162
REMARK   75  A    between atoms: _171  and  _173
REMARK   76  A    between atoms: _173  and  _174
REMARK   77  A    between atoms: _173  and  _176
REMARK   78  A    between atoms: _176  and  _177
REMARK   79  A    between atoms: _177  and  _178
REMARK   80  A    between atoms: _178  and  _179
REMARK   81  A    between atoms: _179  and  _180
REMARK   82  A    between atoms: _184  and  _186
REMARK   83  A    between atoms: _186  and  _187
REMARK   84  A    between atoms: _186  and  _189
REMARK   85  A    between atoms: _189  and  _190
REMARK   86  A    between atoms: _190  and  _191
REMARK   87  A    between atoms: _191  and  _192
REMARK   88  A    between atoms: _192  and  CA_266
REMARK   89  A    between atoms: _194  and  _196
REMARK   90  A    between atoms: _196  and  _197
REMARK   91  A    between atoms: _196  and  _199
REMARK   92  A    between atoms: _197  and  _198
REMARK   93  A    between atoms: _197  and  _206
REMARK   94  A    between atoms: _198  and  CA_265
REMARK   95  A    between atoms: _199  and  _200
REMARK   96  A    between atoms: _200  and  _201
REMARK   97  A    between atoms: _206  and  _208
REMARK   98  A    between atoms: _208  and  _209
REMARK   99  A    between atoms: _208  and  _211
REMARK  100  A    between atoms: _211  and  _212
REMARK  101  A    between atoms: _215  and  _217
REMARK  102  A    between atoms: _217  and  _218
REMARK  103  A    between atoms: _217  and  _220
REMARK  104  A    between atoms: _220  and  _221
REMARK  105  A    between atoms: _223  and  _225
REMARK  106  A    between atoms: _225  and  _226
REMARK  107  A    between atoms: _225  and  _228
REMARK  108  A    between atoms: _228  and  _229
REMARK  109  A    between atoms: _229  and  _230
REMARK  110  A    between atoms: _230  and  _231
REMARK  111  A    between atoms: _231  and  _232
REMARK  112  A    between atoms: _236  and  _238
REMARK  113  A    between atoms: _238  and  _239
REMARK  114  A    between atoms: _238  and  _241
REMARK  115  A    between atoms: _241  and  _242
REMARK  116  A    between atoms: _245  and  _247
REMARK  117  A    between atoms: _247  and  _248
REMARK  118  A    between atoms: _247  and  _250
REMARK  119  A    between atoms: _250  and  _251
REMARK  120  A    between atoms: _253  and  _255
REMARK  121  A    between atoms: _255  and  _256
REMARK  122  A    between atoms: _255  and  _258
REMARK  123  A    between atoms: _258  and  _259
REMARK  124  A    between atoms: _259  and  _260
REMARK  125  A    between atoms: _260  and  _261
REMARK  126  A    between atoms: _260  and  _262
REMARK  127  A    between atoms: _261  and  CA_266
REMARK                            x       y       z     vdW  Elec       q    Type
REMARK                         _______ _______ _______ _____ _____    ______ ____
ROOT
ATOM      1  O   HOH     1      21.249  16.868  56.599  0.00  0.00    +0.000 OA
ENDROOT
TORSDOF 0
REMARK  Name = ../refined-set-2016/2w08/2w08_pocket.pdb
REMARK  127 active torsions:
REMARK  status: ('A' for Active; 'I' for Inactive)
REMARK    1  A    between atoms: _1  and  _3
REMARK    2  A    between atoms: _3  and  _4
REMARK    3  A    between atoms: _7  and  _9
REMARK    4  A    between atoms: _9  and  _10
REMARK    5  A    between atoms: _9  and  _12
REMARK    6  A    between atoms: _12  and  _13
REMARK    7  A    between atoms: _18  and  _19
REMARK    8  A    between atoms: _21  and  _23
REMARK    9  A    between atoms: _23  and  _24
REMARK   10  A    between atoms: _23  and  _26
REMARK   11  A    between atoms: _26  and  _27
REMARK   12  A    between atoms: _29  and  _31
REMARK   13  A    between atoms: _31  and  _32
REMARK   14  A    between atoms: _31  and  _34
REMARK   15  A    between atoms: _34  and  _35
REMARK   16  A    between atoms: _37  and  _39
REMARK   17  A    between atoms: _39  and  _40
REMARK   18  A    between atoms: _39  and  _42
REMARK   19  A    between atoms: _42  and  _43
REMARK   20  A    between atoms: _48  and  _50
REMARK   21  A    between atoms: _50  and  _51
REMARK   22  A    between atoms: _50  and  _53
REMARK   23  A    between atoms: _53  and  _54
REMARK   24  A    between atoms: _57  and  _59
REMARK   25  A    between atoms: _59  and  _60
REMARK   26  A    between atoms: _59  and  _62
REMARK   27  A    between atoms: _62  and  _63
REMARK   28  A    between atoms: _63  and  _64
REMARK   29  A    between atoms: _63  and  _65
REMARK   30  A    between atoms: _64  and  CA_265
REMARK   31  A    between atoms: _68  and  _70
REMARK   32  A    between atoms: _70  and  _71
REMARK   33  A    between atoms: _70  and  _73
REMARK   34  A    between atoms: _73  and  _74
REMARK   35  A    between atoms: _74  and  _75
REMARK   36  A    between atoms: _78  and  _80
REMARK   37  A    between atoms: _80  and  _81
REMARK   38  A    between atoms: _80  and  _83
REMARK   39  A    between atoms: _83  and  _84
REMARK   40  A    between atoms: _87  and  _89
REMARK   41  A    between atoms: _89  and  _90
REMARK   42  A    between atoms: _89  and  _92
REMARK   43  A    between atoms: _95  and  _97
REMARK   44  A    between atoms: _97  and  _98
REMARK   45  A    between atoms: _97  and  _100
REMARK   46  A    between atoms: _100  and  _101
REMARK   47  A    between atoms: _106  and  _107
REMARK   48  A    between atoms: _109  and  _111
REMARK   49  A    between atoms: _111  and  _112
REMARK   50  A    between atoms: _111  and  _114
REMARK   51  A    between atoms: _114  and  _115
REMARK   52  A    between atoms: _115  and  _116
REMARK   53  A    between atoms: _116  and  _117
REMARK   54  A    between atoms: _117  and  _118
REMARK   55  A    between atoms: _122  and  _124
REMARK   56  A    between atoms: _124  and  _125
REMARK   57  A    between atoms: _124  and  _127
REMARK   58  A    between atoms: _127  and  _128
REMARK   59  A    between atoms: _128  and  _129
REMARK   60  A    between atoms: _132  and  _134
REMARK   61  A    between atoms: _134  and  _135
REMARK   62  A    between atoms: _134  and  _137
REMARK   63  A    between atoms: _137  and  _138
REMARK   64  A    between atoms: _140  and  _142
REMARK   65  A    between atoms: _142  and  _143
REMARK   66  A    between atoms: _142  and  _145
REMARK   67  A    between atoms: _145  and  _146
REMARK   68  A    between atoms: _151  and  _152
REMARK   69  A    between atoms: _154  and  _156
REMARK   70  A    between atoms: _156  and  _157
REMARK   71  A    between atoms: _156  and  _159
REMARK   72  A    between atoms: _159  and  _160
REMARK   73  A    between atoms: _160  and  _161
REMARK   74  A    between atoms: _161  and  _162
REMARK   75  A    between atoms: _171  and  _173
REMARK   76  A    between atoms: _173  and  _174
REMARK   77  A    between atoms: _173  and  _176
REMARK   78  A    between atoms: _176  and  _177
REMARK   79  A    between atoms: _177  and  _178
REMARK   80  A    between atoms: _178  and  _179
REMARK   81  A    between atoms: _179  and  _180
REMARK   82  A    between atoms: _184  and  _186
REMARK   83  A    between atoms: _186  and  _187
REMARK   84  A    between atoms: _186  and  _189
REMARK   85  A    between atoms: _189  and  _190
REMARK   86  A    between atoms: _190  and  _191
REMARK   87  A    between atoms: _191  and  _192
REMARK   88  A    between atoms: _192  and  CA_266
REMARK   89  A    between atoms: _194  and  _196
REMARK   90  A    between atoms: _196  and  _197
REMARK   91  A    between atoms: _196  and  _199
REMARK   92  A    between atoms: _197  and  _198
REMARK   93  A    between atoms: _197  and  _206
REMARK   94  A    between atoms: _198  and  CA_265
REMARK   95  A    between atoms: _199  and  _200
REMARK   96  A    between atoms: _200  and  _201
REMARK   97  A    between atoms: _206  and  _208
REMARK   98  A    between atoms: _208  and  _209
REMARK   99  A    between atoms: _208  and  _211
REMARK  100  A    between atoms: _211  and  _212
REMARK  101  A    between atoms: _215  and  _217
REMARK  102  A    between atoms: _217  and  _218
REMARK  103  A    between atoms: _217  and  _220
REMARK  104  A    between atoms: _220  and  _221
REMARK  105  A    between atoms: _223  and  _225
REMARK  106  A    between atoms: _225  and  _226
REMARK  107  A    between atoms: _225  and  _228
REMARK  108  A    between atoms: _228  and  _229
REMARK  109  A    between atoms: _229  and  _230
REMARK  110  A    between atoms: _230  and  _231
REMARK  111  A    between atoms: _231  and  _232
REMARK  112  A    between atoms: _236  and  _238
REMARK  113  A    between atoms: _238  and  _239
REMARK  114  A    between atoms: _238  and  _241
REMARK  115  A    between atoms: _241  and  _242
REMARK  116  A    between atoms: _245  and  _247
REMARK  117  A    between atoms: _247  and  _248
REMARK  118  A    between atoms: _247  and  _250
REMARK  119  A    between atoms: _250  and  _251
REMARK  120  A    between atoms: _253  and  _255
REMARK  121  A    between atoms: _255  and  _256
REMARK  122  A    between atoms: _255  and  _258
REMARK  123  A    between atoms: _258  and  _259
REMARK  124  A    between atoms: _259  and  _260
REMARK  125  A    between atoms: _260  and  _261
REMARK  126  A    between atoms: _260  and  _262
REMARK  127  A    between atoms: _261  and  CA_266
REMARK                            x       y       z     vdW  Elec       q    Type
REMARK                         _______ _______ _______ _____ _____    ______ ____
ROOT
ATOM      1  O   HOH     1      15.961  19.247  54.772  0.00  0.00    +0.000 OA
ENDROOT
TORSDOF 0
REMARK  Name = ../refined-set-2016/2w08/2w08_pocket.pdb
REMARK  127 active torsions:
REMARK  status: ('A' for Active; 'I' for Inactive)
REMARK    1  A    between atoms: _1  and  _3
REMARK    2  A    between atoms: _3  and  _4
REMARK    3  A    between atoms: _7  and  _9
REMARK    4  A    between atoms: _9  and  _10
REMARK    5  A    between atoms: _9  and  _12
REMARK    6  A    between atoms: _12  and  _13
REMARK    7  A    between atoms: _18  and  _19
REMARK    8  A    between atoms: _21  and  _23
REMARK    9  A    between atoms: _23  and  _24
REMARK   10  A    between atoms: _23  and  _26
REMARK   11  A    between atoms: _26  and  _27
REMARK   12  A    between atoms: _29  and  _31
REMARK   13  A    between atoms: _31  and  _32
REMARK   14  A    between atoms: _31  and  _34
REMARK   15  A    between atoms: _34  and  _35
REMARK   16  A    between atoms: _37  and  _39
REMARK   17  A    between atoms: _39  and  _40
REMARK   18  A    between atoms: _39  and  _42
REMARK   19  A    between atoms: _42  and  _43
REMARK   20  A    between atoms: _48  and  _50
REMARK   21  A    between atoms: _50  and  _51
REMARK   22  A    between atoms: _50  and  _53
REMARK   23  A    between atoms: _53  and  _54
REMARK   24  A    between atoms: _57  and  _59
REMARK   25  A    between atoms: _59  and  _60
REMARK   26  A    between atoms: _59  and  _62
REMARK   27  A    between atoms: _62  and  _63
REMARK   28  A    between atoms: _63  and  _64
REMARK   29  A    between atoms: _63  and  _65
REMARK   30  A    between atoms: _64  and  CA_265
REMARK   31  A    between atoms: _68  and  _70
REMARK   32  A    between atoms: _70  and  _71
REMARK   33  A    between atoms: _70  and  _73
REMARK   34  A    between atoms: _73  and  _74
REMARK   35  A    between atoms: _74  and  _75
REMARK   36  A    between atoms: _78  and  _80
REMARK   37  A    between atoms: _80  and  _81
REMARK   38  A    between atoms: _80  and  _83
REMARK   39  A    between atoms: _83  and  _84
REMARK   40  A    between atoms: _87  and  _89
REMARK   41  A    between atoms: _89  and  _90
REMARK   42  A    between atoms: _89  and  _92
REMARK   43  A    between atoms: _95  and  _97
REMARK   44  A    between atoms: _97  and  _98
REMARK   45  A    between atoms: _97  and  _100
REMARK   46  A    between atoms: _100  and  _101
REMARK   47  A    between atoms: _106  and  _107
REMARK   48  A    between atoms: _109  and  _111
REMARK   49  A    between atoms: _111  and  _112
REMARK   50  A    between atoms: _111  and  _114
REMARK   51  A    between atoms: _114  and  _115
REMARK   52  A    between atoms: _115  and  _116
REMARK   53  A    between atoms: _116  and  _117
REMARK   54  A    between atoms: _117  and  _118
REMARK   55  A    between atoms: _122  and  _124
REMARK   56  A    between atoms: _124  and  _125
REMARK   57  A    between atoms: _124  and  _127
REMARK   58  A    between atoms: _127  and  _128
REMARK   59  A    between atoms: _128  and  _129
REMARK   60  A    between atoms: _132  and  _134
REMARK   61  A    between atoms: _134  and  _135
REMARK   62  A    between atoms: _134  and  _137
REMARK   63  A    between atoms: _137  and  _138
REMARK   64  A    between atoms: _140  and  _142
REMARK   65  A    between atoms: _142  and  _143
REMARK   66  A    between atoms: _142  and  _145
REMARK   67  A    between atoms: _145  and  _146
REMARK   68  A    between atoms: _151  and  _152
REMARK   69  A    between atoms: _154  and  _156
REMARK   70  A    between atoms: _156  and  _157
REMARK   71  A    between atoms: _156  and  _159
REMARK   72  A    between atoms: _159  and  _160
REMARK   73  A    between atoms: _160  and  _161
REMARK   74  A    between atoms: _161  and  _162
REMARK   75  A    between atoms: _171  and  _173
REMARK   76  A    between atoms: _173  and  _174
REMARK   77  A    between atoms: _173  and  _176
REMARK   78  A    between atoms: _176  and  _177
REMARK   79  A    between atoms: _177  and  _178
REMARK   80  A    between atoms: _178  and  _179
REMARK   81  A    between atoms: _179  and  _180
REMARK   82  A    between atoms: _184  and  _186
REMARK   83  A    between atoms: _186  and  _187
REMARK   84  A    between atoms: _186  and  _189
REMARK   85  A    between atoms: _189  and  _190
REMARK   86  A    between atoms: _190  and  _191
REMARK   87  A    between atoms: _191  and  _192
REMARK   88  A    between atoms: _192  and  CA_266
REMARK   89  A    between atoms: _194  and  _196
REMARK   90  A    between atoms: _196  and  _197
REMARK   91  A    between atoms: _196  and  _199
REMARK   92  A    between atoms: _197  and  _198
REMARK   93  A    between atoms: _197  and  _206
REMARK   94  A    between atoms: _198  and  CA_265
REMARK   95  A    between atoms: _199  and  _200
REMARK   96  A    between atoms: _200  and  _201
REMARK   97  A    between atoms: _206  and  _208
REMARK   98  A    between atoms: _208  and  _209
REMARK   99  A    between atoms: _208  and  _211
REMARK  100  A    between atoms: _211  and  _212
REMARK  101  A    between atoms: _215  and  _217
REMARK  102  A    between atoms: _217  and  _218
REMARK  103  A    between atoms: _217  and  _220
REMARK  104  A    between atoms: _220  and  _221
REMARK  105  A    between atoms: _223  and  _225
REMARK  106  A    between atoms: _225  and  _226
REMARK  107  A    between atoms: _225  and  _228
REMARK  108  A    between atoms: _228  and  _229
REMARK  109  A    between atoms: _229  and  _230
REMARK  110  A    between atoms: _230  and  _231
REMARK  111  A    between atoms: _231  and  _232
REMARK  112  A    between atoms: _236  and  _238
REMARK  113  A    between atoms: _238  and  _239
REMARK  114  A    between atoms: _238  and  _241
REMARK  115  A    between atoms: _241  and  _242
REMARK  116  A    between atoms: _245  and  _247
REMARK  117  A    between atoms: _247  and  _248
REMARK  118  A    between atoms: _247  and  _250
REMARK  119  A    between atoms: _250  and  _251
REMARK  120  A    between atoms: _253  and  _255
REMARK  121  A    between atoms: _255  and  _256
REMARK  122  A    between atoms: _255  and  _258
REMARK  123  A    between atoms: _258  and  _259
REMARK  124  A    between atoms: _259  and  _260
REMARK  125  A    between atoms: _260  and  _261
REMARK  126  A    between atoms: _260  and  _262
REMARK  127  A    between atoms: _261  and  CA_266
REMARK                            x       y       z     vdW  Elec       q    Type
REMARK                         _______ _______ _______ _____ _____    ______ ____
ROOT
ATOM      1  O   HOH     1      21.423  15.261  51.712  0.00  0.00    +0.000 OA
ENDROOT
TORSDOF 0
