REMARK  Name = ../refined-set-2016/1utn/1utn_pocket.pdb
REMARK  125 active torsions:
REMARK  status: ('A' for Active; 'I' for Inactive)
REMARK    1  A    between atoms: _1  and  _5
REMARK    2  A    between atoms: _5  and  _6
REMARK    3  A    between atoms: _5  and  _8
REMARK    4  A    between atoms: _8  and  _9
REMARK    5  A    between atoms: _12  and  _14
REMARK    6  A    between atoms: _14  and  _15
REMARK    7  A    between atoms: _14  and  _17
REMARK    8  A    between atoms: _20  and  _22
REMARK    9  A    between atoms: _22  and  _23
REMARK   10  A    between atoms: _22  and  _25
REMARK   11  A    between atoms: _25  and  _26
REMARK   12  A    between atoms: _31  and  _33
REMARK   13  A    between atoms: _33  and  _34
REMARK   14  A    between atoms: _33  and  _36
REMARK   15  A    between atoms: _36  and  _37
REMARK   16  A    between atoms: _40  and  _42
REMARK   17  A    between atoms: _42  and  _43
REMARK   18  A    between atoms: _42  and  _45
REMARK   19  A    between atoms: _45  and  _46
REMARK   20  A    between atoms: _49  and  _51
REMARK   21  A    between atoms: _51  and  _52
REMARK   22  A    between atoms: _51  and  _54
REMARK   23  A    between atoms: _54  and  _55
REMARK   24  A    between atoms: _60  and  _62
REMARK   25  A    between atoms: _62  and  _63
REMARK   26  A    between atoms: _62  and  _65
REMARK   27  A    between atoms: _65  and  _66
REMARK   28  A    between atoms: _68  and  _70
REMARK   29  A    between atoms: _70  and  _71
REMARK   30  A    between atoms: _70  and  _73
REMARK   31  A    between atoms: _73  and  _74
REMARK   32  A    between atoms: _79  and  _80
REMARK   33  A    between atoms: _82  and  _84
REMARK   34  A    between atoms: _84  and  _85
REMARK   35  A    between atoms: _88  and  _90
REMARK   36  A    between atoms: _90  and  _91
REMARK   37  A    between atoms: _90  and  _93
REMARK   38  A    between atoms: _93  and  _94
REMARK   39  A    between atoms: _94  and  _95
REMARK   40  A    between atoms: _95  and  _96
REMARK   41  A    between atoms: _96  and  _97
REMARK   42  A    between atoms: _101  and  _103
REMARK   43  A    between atoms: _103  and  _104
REMARK   44  A    between atoms: _103  and  _106
REMARK   45  A    between atoms: _106  and  _107
REMARK   46  A    between atoms: _110  and  _112
REMARK   47  A    between atoms: _112  and  _113
REMARK   48  A    between atoms: _112  and  _115
REMARK   49  A    between atoms: _115  and  _116
REMARK   50  A    between atoms: _118  and  _120
REMARK   51  A    between atoms: _120  and  _121
REMARK   52  A    between atoms: _120  and  _123
REMARK   53  A    between atoms: _123  and  _124
REMARK   54  A    between atoms: _124  and  _234
REMARK   55  A    between atoms: _125  and  _127
REMARK   56  A    between atoms: _127  and  _128
REMARK   57  A    between atoms: _127  and  _130
REMARK   58  A    between atoms: _130  and  _131
REMARK   59  A    between atoms: _131  and  _132
REMARK   60  A    between atoms: _137  and  _139
REMARK   61  A    between atoms: _139  and  _140
REMARK   62  A    between atoms: _142  and  _144
REMARK   63  A    between atoms: _144  and  _145
REMARK   64  A    between atoms: _144  and  _147
REMARK   65  A    between atoms: _147  and  _148
REMARK   66  A    between atoms: _151  and  _153
REMARK   67  A    between atoms: _153  and  _154
REMARK   68  A    between atoms: _153  and  _156
REMARK   69  A    between atoms: _156  and  _157
REMARK   70  A    between atoms: _159  and  _161
REMARK   71  A    between atoms: _161  and  _162
REMARK   72  A    between atoms: _164  and  _166
REMARK   73  A    between atoms: _166  and  _167
REMARK   74  A    between atoms: _169  and  _171
REMARK   75  A    between atoms: _171  and  _172
REMARK   76  A    between atoms: _171  and  _174
REMARK   77  A    between atoms: _174  and  _175
REMARK   78  A    between atoms: _178  and  _180
REMARK   79  A    between atoms: _180  and  _181
REMARK   80  A    between atoms: _180  and  _183
REMARK   81  A    between atoms: _186  and  _188
REMARK   82  A    between atoms: _188  and  _189
REMARK   83  A    between atoms: _188  and  _191
REMARK   84  A    between atoms: _191  and  _192
REMARK   85  A    between atoms: _194  and  _196
REMARK   86  A    between atoms: _196  and  _197
REMARK   87  A    between atoms: _196  and  _199
REMARK   88  A    between atoms: _199  and  _200
REMARK   89  A    between atoms: _210  and  _212
REMARK   90  A    between atoms: _212  and  _213
REMARK   91  A    between atoms: _215  and  _217
REMARK   92  A    between atoms: _217  and  _218
REMARK   93  A    between atoms: _217  and  _220
REMARK   94  A    between atoms: _220  and  _221
REMARK   95  A    between atoms: _223  and  _225
REMARK   96  A    between atoms: _225  and  _226
REMARK   97  A    between atoms: _228  and  _230
REMARK   98  A    between atoms: _230  and  _231
REMARK   99  A    between atoms: _230  and  _233
REMARK  100  A    between atoms: _233  and  _234
REMARK  101  A    between atoms: _235  and  _237
REMARK  102  A    between atoms: _237  and  _238
REMARK  103  A    between atoms: _241  and  _243
REMARK  104  A    between atoms: _243  and  _244
REMARK  105  A    between atoms: _243  and  _246
REMARK  106  A    between atoms: _246  and  _247
REMARK  107  A    between atoms: _247  and  _248
REMARK  108  A    between atoms: _253  and  _255
REMARK  109  A    between atoms: _255  and  _256
REMARK  110  A    between atoms: _255  and  _258
REMARK  111  A    between atoms: _258  and  _259
REMARK  112  A    between atoms: _259  and  _260
REMARK  113  A    between atoms: _260  and  _261
REMARK  114  A    between atoms: _261  and  _262
REMARK  115  A    between atoms: _267  and  _268
REMARK  116  A    between atoms: _273  and  _275
REMARK  117  A    between atoms: _275  and  _276
REMARK  118  A    between atoms: _278  and  _280
REMARK  119  A    between atoms: _280  and  _281
REMARK  120  A    between atoms: _280  and  _283
REMARK  121  A    between atoms: _286  and  _288
REMARK  122  A    between atoms: _288  and  _289
REMARK  123  A    between atoms: _288  and  _291
REMARK  124  A    between atoms: _291  and  _292
REMARK  125  A    between atoms: _297  and  _298
REMARK                            x       y       z     vdW  Elec       q    Type
REMARK                         _______ _______ _______ _____ _____    ______ ____
ROOT
ATOM      1  C   ILE A   1      36.709  20.840  18.206  0.00  0.00    +0.202 C 
ATOM      2  O   ILE A   1      37.801  20.902  18.796  0.00  0.00    -0.277 OA
ATOM      3  N   VAL A   2      36.544  20.554  16.931  0.00  0.00    -0.301 N 
ATOM      4  H   VAL A   2      35.576  20.448  16.566  0.00  0.00    +0.150 HD
ENDROOT
BRANCH   1   5
ATOM      5  CA  ILE A   1      35.419  21.015  19.012  0.00  0.00    +0.013 C 
BRANCH   5   6
ATOM      6  N   ILE A   1      35.404  20.038  20.125  0.00  0.00    +0.387 N 
ATOM      7  H1  ILE A   1      36.226  20.203  20.740  0.00  0.00    -0.089 HD
ATOM      8  H2  ILE A   1      34.529  20.154  20.675  0.00  0.00    -0.089 HD
ATOM      9  H3  ILE A   1      35.447  19.073  19.739  0.00  0.00    -0.089 HD
ENDBRANCH   5   6
BRANCH   5  10
ATOM     10  CB  ILE A   1      35.371  22.445  19.570  0.00  0.00    -0.011 C 
ATOM     11  CG2 ILE A   1      35.460  23.442  18.410  0.00  0.00    -0.002 C 
BRANCH  10  12
ATOM     12  CG1 ILE A   1      34.179  22.810  20.448  0.00  0.00    -0.002 C 
ATOM     13  CD1 ILE A   1      32.833  22.854  19.736  0.00  0.00    -0.000 C 
ENDBRANCH  10  12
ENDBRANCH   5  10
ENDBRANCH   1   5
BRANCH   3  14
ATOM     14  CA  VAL A   2      37.665  20.378  16.004  0.00  0.00    +0.137 C 
BRANCH  14  15
ATOM     15  CB  VAL A   2      37.414  19.233  15.027  0.00  0.00    +0.026 C 
ATOM     16  CG2 VAL A   2      37.159  17.950  15.812  0.00  0.00    +0.002 C 
ATOM     17  CG1 VAL A   2      38.573  19.071  14.040  0.00  0.00    +0.002 C 
ENDBRANCH  14  15
BRANCH  14  18
ATOM     18  C   VAL A   2      37.826  21.679  15.247  0.00  0.00    +0.227 C 
ATOM     19  O   VAL A   2      36.878  22.215  14.680  0.00  0.00    -0.286 OA
ENDBRANCH  14  18
ENDBRANCH   3  14
TORSDOF 7
REMARK  Name = ../refined-set-2016/1utn/1utn_pocket.pdb
REMARK  125 active torsions:
REMARK  status: ('A' for Active; 'I' for Inactive)
REMARK    1  A    between atoms: _1  and  _5
REMARK    2  A    between atoms: _5  and  _6
REMARK    3  A    between atoms: _5  and  _8
REMARK    4  A    between atoms: _8  and  _9
REMARK    5  A    between atoms: _12  and  _14
REMARK    6  A    between atoms: _14  and  _15
REMARK    7  A    between atoms: _14  and  _17
REMARK    8  A    between atoms: _20  and  _22
REMARK    9  A    between atoms: _22  and  _23
REMARK   10  A    between atoms: _22  and  _25
REMARK   11  A    between atoms: _25  and  _26
REMARK   12  A    between atoms: _31  and  _33
REMARK   13  A    between atoms: _33  and  _34
REMARK   14  A    between atoms: _33  and  _36
REMARK   15  A    between atoms: _36  and  _37
REMARK   16  A    between atoms: _40  and  _42
REMARK   17  A    between atoms: _42  and  _43
REMARK   18  A    between atoms: _42  and  _45
REMARK   19  A    between atoms: _45  and  _46
REMARK   20  A    between atoms: _49  and  _51
REMARK   21  A    between atoms: _51  and  _52
REMARK   22  A    between atoms: _51  and  _54
REMARK   23  A    between atoms: _54  and  _55
REMARK   24  A    between atoms: _60  and  _62
REMARK   25  A    between atoms: _62  and  _63
REMARK   26  A    between atoms: _62  and  _65
REMARK   27  A    between atoms: _65  and  _66
REMARK   28  A    between atoms: _68  and  _70
REMARK   29  A    between atoms: _70  and  _71
REMARK   30  A    between atoms: _70  and  _73
REMARK   31  A    between atoms: _73  and  _74
REMARK   32  A    between atoms: _79  and  _80
REMARK   33  A    between atoms: _82  and  _84
REMARK   34  A    between atoms: _84  and  _85
REMARK   35  A    between atoms: _88  and  _90
REMARK   36  A    between atoms: _90  and  _91
REMARK   37  A    between atoms: _90  and  _93
REMARK   38  A    between atoms: _93  and  _94
REMARK   39  A    between atoms: _94  and  _95
REMARK   40  A    between atoms: _95  and  _96
REMARK   41  A    between atoms: _96  and  _97
REMARK   42  A    between atoms: _101  and  _103
REMARK   43  A    between atoms: _103  and  _104
REMARK   44  A    between atoms: _103  and  _106
REMARK   45  A    between atoms: _106  and  _107
REMARK   46  A    between atoms: _110  and  _112
REMARK   47  A    between atoms: _112  and  _113
REMARK   48  A    between atoms: _112  and  _115
REMARK   49  A    between atoms: _115  and  _116
REMARK   50  A    between atoms: _118  and  _120
REMARK   51  A    between atoms: _120  and  _121
REMARK   52  A    between atoms: _120  and  _123
REMARK   53  A    between atoms: _123  and  _124
REMARK   54  A    between atoms: _124  and  _234
REMARK   55  A    between atoms: _125  and  _127
REMARK   56  A    between atoms: _127  and  _128
REMARK   57  A    between atoms: _127  and  _130
REMARK   58  A    between atoms: _130  and  _131
REMARK   59  A    between atoms: _131  and  _132
REMARK   60  A    between atoms: _137  and  _139
REMARK   61  A    between atoms: _139  and  _140
REMARK   62  A    between atoms: _142  and  _144
REMARK   63  A    between atoms: _144  and  _145
REMARK   64  A    between atoms: _144  and  _147
REMARK   65  A    between atoms: _147  and  _148
REMARK   66  A    between atoms: _151  and  _153
REMARK   67  A    between atoms: _153  and  _154
REMARK   68  A    between atoms: _153  and  _156
REMARK   69  A    between atoms: _156  and  _157
REMARK   70  A    between atoms: _159  and  _161
REMARK   71  A    between atoms: _161  and  _162
REMARK   72  A    between atoms: _164  and  _166
REMARK   73  A    between atoms: _166  and  _167
REMARK   74  A    between atoms: _169  and  _171
REMARK   75  A    between atoms: _171  and  _172
REMARK   76  A    between atoms: _171  and  _174
REMARK   77  A    between atoms: _174  and  _175
REMARK   78  A    between atoms: _178  and  _180
REMARK   79  A    between atoms: _180  and  _181
REMARK   80  A    between atoms: _180  and  _183
REMARK   81  A    between atoms: _186  and  _188
REMARK   82  A    between atoms: _188  and  _189
REMARK   83  A    between atoms: _188  and  _191
REMARK   84  A    between atoms: _191  and  _192
REMARK   85  A    between atoms: _194  and  _196
REMARK   86  A    between atoms: _196  and  _197
REMARK   87  A    between atoms: _196  and  _199
REMARK   88  A    between atoms: _199  and  _200
REMARK   89  A    between atoms: _210  and  _212
REMARK   90  A    between atoms: _212  and  _213
REMARK   91  A    between atoms: _215  and  _217
REMARK   92  A    between atoms: _217  and  _218
REMARK   93  A    between atoms: _217  and  _220
REMARK   94  A    between atoms: _220  and  _221
REMARK   95  A    between atoms: _223  and  _225
REMARK   96  A    between atoms: _225  and  _226
REMARK   97  A    between atoms: _228  and  _230
REMARK   98  A    between atoms: _230  and  _231
REMARK   99  A    between atoms: _230  and  _233
REMARK  100  A    between atoms: _233  and  _234
REMARK  101  A    between atoms: _235  and  _237
REMARK  102  A    between atoms: _237  and  _238
REMARK  103  A    between atoms: _241  and  _243
REMARK  104  A    between atoms: _243  and  _244
REMARK  105  A    between atoms: _243  and  _246
REMARK  106  A    between atoms: _246  and  _247
REMARK  107  A    between atoms: _247  and  _248
REMARK  108  A    between atoms: _253  and  _255
REMARK  109  A    between atoms: _255  and  _256
REMARK  110  A    between atoms: _255  and  _258
REMARK  111  A    between atoms: _258  and  _259
REMARK  112  A    between atoms: _259  and  _260
REMARK  113  A    between atoms: _260  and  _261
REMARK  114  A    between atoms: _261  and  _262
REMARK  115  A    between atoms: _267  and  _268
REMARK  116  A    between atoms: _273  and  _275
REMARK  117  A    between atoms: _275  and  _276
REMARK  118  A    between atoms: _278  and  _280
REMARK  119  A    between atoms: _280  and  _281
REMARK  120  A    between atoms: _280  and  _283
REMARK  121  A    between atoms: _286  and  _288
REMARK  122  A    between atoms: _288  and  _289
REMARK  123  A    between atoms: _288  and  _291
REMARK  124  A    between atoms: _291  and  _292
REMARK  125  A    between atoms: _297  and  _298
REMARK                            x       y       z     vdW  Elec       q    Type
REMARK                         _______ _______ _______ _____ _____    ______ ____
ROOT
ATOM      1  CB  HIS A   1      21.484  11.480  22.849  0.00  0.00    +0.072 C 
ENDROOT
BRANCH   1   2
ATOM      2  CG  HIS A   1      22.624  12.343  22.453  0.00  0.00    +0.082 A 
ATOM      3  CD2 HIS A   1      23.962  12.176  22.716  0.00  0.00    +0.115 A 
ATOM      4  NE2 HIS A   1      24.643  13.227  22.132  0.00  0.00    -0.221 NA
ATOM      5  CE1 HIS A   1      23.756  13.987  21.540  0.00  0.00    +0.199 A 
ATOM      6  ND1 HIS A   1      22.534  13.494  21.716  0.00  0.00    -0.227 NA
ENDBRANCH   1   2
BRANCH   1   7
ATOM      7  CA  HIS A   1      20.875  11.669  24.245  0.00  0.00    +0.139 C 
BRANCH   7   8
ATOM      8  N   HIS A   1      19.937  12.793  24.319  0.00  0.00    -0.239 NA
ATOM      9  H   HIS A   1      19.939  13.521  23.576  0.00  0.00    +0.142 HD
ENDBRANCH   7   8
BRANCH   7  10
ATOM     10  C   HIS A   1      21.940  11.762  25.320  0.00  0.00    +0.224 C 
ATOM     11  O   HIS A   1      22.668  10.757  25.517  0.00  0.00    -0.287 OA
ENDBRANCH   7  10
ENDBRANCH   1   7
TORSDOF 4
REMARK  Name = ../refined-set-2016/1utn/1utn_pocket.pdb
REMARK  125 active torsions:
REMARK  status: ('A' for Active; 'I' for Inactive)
REMARK    1  A    between atoms: _1  and  _5
REMARK    2  A    between atoms: _5  and  _6
REMARK    3  A    between atoms: _5  and  _8
REMARK    4  A    between atoms: _8  and  _9
REMARK    5  A    between atoms: _12  and  _14
REMARK    6  A    between atoms: _14  and  _15
REMARK    7  A    between atoms: _14  and  _17
REMARK    8  A    between atoms: _20  and  _22
REMARK    9  A    between atoms: _22  and  _23
REMARK   10  A    between atoms: _22  and  _25
REMARK   11  A    between atoms: _25  and  _26
REMARK   12  A    between atoms: _31  and  _33
REMARK   13  A    between atoms: _33  and  _34
REMARK   14  A    between atoms: _33  and  _36
REMARK   15  A    between atoms: _36  and  _37
REMARK   16  A    between atoms: _40  and  _42
REMARK   17  A    between atoms: _42  and  _43
REMARK   18  A    between atoms: _42  and  _45
REMARK   19  A    between atoms: _45  and  _46
REMARK   20  A    between atoms: _49  and  _51
REMARK   21  A    between atoms: _51  and  _52
REMARK   22  A    between atoms: _51  and  _54
REMARK   23  A    between atoms: _54  and  _55
REMARK   24  A    between atoms: _60  and  _62
REMARK   25  A    between atoms: _62  and  _63
REMARK   26  A    between atoms: _62  and  _65
REMARK   27  A    between atoms: _65  and  _66
REMARK   28  A    between atoms: _68  and  _70
REMARK   29  A    between atoms: _70  and  _71
REMARK   30  A    between atoms: _70  and  _73
REMARK   31  A    between atoms: _73  and  _74
REMARK   32  A    between atoms: _79  and  _80
REMARK   33  A    between atoms: _82  and  _84
REMARK   34  A    between atoms: _84  and  _85
REMARK   35  A    between atoms: _88  and  _90
REMARK   36  A    between atoms: _90  and  _91
REMARK   37  A    between atoms: _90  and  _93
REMARK   38  A    between atoms: _93  and  _94
REMARK   39  A    between atoms: _94  and  _95
REMARK   40  A    between atoms: _95  and  _96
REMARK   41  A    between atoms: _96  and  _97
REMARK   42  A    between atoms: _101  and  _103
REMARK   43  A    between atoms: _103  and  _104
REMARK   44  A    between atoms: _103  and  _106
REMARK   45  A    between atoms: _106  and  _107
REMARK   46  A    between atoms: _110  and  _112
REMARK   47  A    between atoms: _112  and  _113
REMARK   48  A    between atoms: _112  and  _115
REMARK   49  A    between atoms: _115  and  _116
REMARK   50  A    between atoms: _118  and  _120
REMARK   51  A    between atoms: _120  and  _121
REMARK   52  A    between atoms: _120  and  _123
REMARK   53  A    between atoms: _123  and  _124
REMARK   54  A    between atoms: _124  and  _234
REMARK   55  A    between atoms: _125  and  _127
REMARK   56  A    between atoms: _127  and  _128
REMARK   57  A    between atoms: _127  and  _130
REMARK   58  A    between atoms: _130  and  _131
REMARK   59  A    between atoms: _131  and  _132
REMARK   60  A    between atoms: _137  and  _139
REMARK   61  A    between atoms: _139  and  _140
REMARK   62  A    between atoms: _142  and  _144
REMARK   63  A    between atoms: _144  and  _145
REMARK   64  A    between atoms: _144  and  _147
REMARK   65  A    between atoms: _147  and  _148
REMARK   66  A    between atoms: _151  and  _153
REMARK   67  A    between atoms: _153  and  _154
REMARK   68  A    between atoms: _153  and  _156
REMARK   69  A    between atoms: _156  and  _157
REMARK   70  A    between atoms: _159  and  _161
REMARK   71  A    between atoms: _161  and  _162
REMARK   72  A    between atoms: _164  and  _166
REMARK   73  A    between atoms: _166  and  _167
REMARK   74  A    between atoms: _169  and  _171
REMARK   75  A    between atoms: _171  and  _172
REMARK   76  A    between atoms: _171  and  _174
REMARK   77  A    between atoms: _174  and  _175
REMARK   78  A    between atoms: _178  and  _180
REMARK   79  A    between atoms: _180  and  _181
REMARK   80  A    between atoms: _180  and  _183
REMARK   81  A    between atoms: _186  and  _188
REMARK   82  A    between atoms: _188  and  _189
REMARK   83  A    between atoms: _188  and  _191
REMARK   84  A    between atoms: _191  and  _192
REMARK   85  A    between atoms: _194  and  _196
REMARK   86  A    between atoms: _196  and  _197
REMARK   87  A    between atoms: _196  and  _199
REMARK   88  A    between atoms: _199  and  _200
REMARK   89  A    between atoms: _210  and  _212
REMARK   90  A    between atoms: _212  and  _213
REMARK   91  A    between atoms: _215  and  _217
REMARK   92  A    between atoms: _217  and  _218
REMARK   93  A    between atoms: _217  and  _220
REMARK   94  A    between atoms: _220  and  _221
REMARK   95  A    between atoms: _223  and  _225
REMARK   96  A    between atoms: _225  and  _226
REMARK   97  A    between atoms: _228  and  _230
REMARK   98  A    between atoms: _230  and  _231
REMARK   99  A    between atoms: _230  and  _233
REMARK  100  A    between atoms: _233  and  _234
REMARK  101  A    between atoms: _235  and  _237
REMARK  102  A    between atoms: _237  and  _238
REMARK  103  A    between atoms: _241  and  _243
REMARK  104  A    between atoms: _243  and  _244
REMARK  105  A    between atoms: _243  and  _246
REMARK  106  A    between atoms: _246  and  _247
REMARK  107  A    between atoms: _247  and  _248
REMARK  108  A    between atoms: _253  and  _255
REMARK  109  A    between atoms: _255  and  _256
REMARK  110  A    between atoms: _255  and  _258
REMARK  111  A    between atoms: _258  and  _259
REMARK  112  A    between atoms: _259  and  _260
REMARK  113  A    between atoms: _260  and  _261
REMARK  114  A    between atoms: _261  and  _262
REMARK  115  A    between atoms: _267  and  _268
REMARK  116  A    between atoms: _273  and  _275
REMARK  117  A    between atoms: _275  and  _276
REMARK  118  A    between atoms: _278  and  _280
REMARK  119  A    between atoms: _280  and  _281
REMARK  120  A    between atoms: _280  and  _283
REMARK  121  A    between atoms: _286  and  _288
REMARK  122  A    between atoms: _288  and  _289
REMARK  123  A    between atoms: _288  and  _291
REMARK  124  A    between atoms: _291  and  _292
REMARK  125  A    between atoms: _297  and  _298
REMARK                            x       y       z     vdW  Elec       q    Type
REMARK                         _______ _______ _______ _____ _____    ______ ____
ROOT
ATOM      1  CA  LEU A   1      17.516  11.786  17.262  0.00  0.00    +0.133 C 
ENDROOT
BRANCH   1   2
ATOM      2  N   LEU A   1      17.157  10.586  16.533  0.00  0.00    -0.239 NA
ATOM      3  H   LEU A   1      16.943   9.739  17.098  0.00  0.00    +0.142 HD
ENDBRANCH   1   2
BRANCH   1   4
ATOM      4  C   LEU A   1      16.558  12.931  17.030  0.00  0.00    +0.224 C 
ATOM      5  O   LEU A   1      16.838  14.076  17.412  0.00  0.00    -0.287 OA
ENDBRANCH   1   4
BRANCH   1   6
ATOM      6  CB  LEU A   1      18.990  12.177  17.059  0.00  0.00    +0.025 C 
BRANCH   6   7
ATOM      7  CG  LEU A   1      19.981  11.180  17.643  0.00  0.00    +0.002 C 
ATOM      8  CD2 LEU A   1      19.779  10.852  19.135  0.00  0.00    +0.000 C 
ATOM      9  CD1 LEU A   1      21.393  11.618  17.609  0.00  0.00    +0.000 C 
ENDBRANCH   6   7
ENDBRANCH   1   6
TORSDOF 4
REMARK  Name = ../refined-set-2016/1utn/1utn_pocket.pdb
REMARK  125 active torsions:
REMARK  status: ('A' for Active; 'I' for Inactive)
REMARK    1  A    between atoms: _1  and  _5
REMARK    2  A    between atoms: _5  and  _6
REMARK    3  A    between atoms: _5  and  _8
REMARK    4  A    between atoms: _8  and  _9
REMARK    5  A    between atoms: _12  and  _14
REMARK    6  A    between atoms: _14  and  _15
REMARK    7  A    between atoms: _14  and  _17
REMARK    8  A    between atoms: _20  and  _22
REMARK    9  A    between atoms: _22  and  _23
REMARK   10  A    between atoms: _22  and  _25
REMARK   11  A    between atoms: _25  and  _26
REMARK   12  A    between atoms: _31  and  _33
REMARK   13  A    between atoms: _33  and  _34
REMARK   14  A    between atoms: _33  and  _36
REMARK   15  A    between atoms: _36  and  _37
REMARK   16  A    between atoms: _40  and  _42
REMARK   17  A    between atoms: _42  and  _43
REMARK   18  A    between atoms: _42  and  _45
REMARK   19  A    between atoms: _45  and  _46
REMARK   20  A    between atoms: _49  and  _51
REMARK   21  A    between atoms: _51  and  _52
REMARK   22  A    between atoms: _51  and  _54
REMARK   23  A    between atoms: _54  and  _55
REMARK   24  A    between atoms: _60  and  _62
REMARK   25  A    between atoms: _62  and  _63
REMARK   26  A    between atoms: _62  and  _65
REMARK   27  A    between atoms: _65  and  _66
REMARK   28  A    between atoms: _68  and  _70
REMARK   29  A    between atoms: _70  and  _71
REMARK   30  A    between atoms: _70  and  _73
REMARK   31  A    between atoms: _73  and  _74
REMARK   32  A    between atoms: _79  and  _80
REMARK   33  A    between atoms: _82  and  _84
REMARK   34  A    between atoms: _84  and  _85
REMARK   35  A    between atoms: _88  and  _90
REMARK   36  A    between atoms: _90  and  _91
REMARK   37  A    between atoms: _90  and  _93
REMARK   38  A    between atoms: _93  and  _94
REMARK   39  A    between atoms: _94  and  _95
REMARK   40  A    between atoms: _95  and  _96
REMARK   41  A    between atoms: _96  and  _97
REMARK   42  A    between atoms: _101  and  _103
REMARK   43  A    between atoms: _103  and  _104
REMARK   44  A    between atoms: _103  and  _106
REMARK   45  A    between atoms: _106  and  _107
REMARK   46  A    between atoms: _110  and  _112
REMARK   47  A    between atoms: _112  and  _113
REMARK   48  A    between atoms: _112  and  _115
REMARK   49  A    between atoms: _115  and  _116
REMARK   50  A    between atoms: _118  and  _120
REMARK   51  A    between atoms: _120  and  _121
REMARK   52  A    between atoms: _120  and  _123
REMARK   53  A    between atoms: _123  and  _124
REMARK   54  A    between atoms: _124  and  _234
REMARK   55  A    between atoms: _125  and  _127
REMARK   56  A    between atoms: _127  and  _128
REMARK   57  A    between atoms: _127  and  _130
REMARK   58  A    between atoms: _130  and  _131
REMARK   59  A    between atoms: _131  and  _132
REMARK   60  A    between atoms: _137  and  _139
REMARK   61  A    between atoms: _139  and  _140
REMARK   62  A    between atoms: _142  and  _144
REMARK   63  A    between atoms: _144  and  _145
REMARK   64  A    between atoms: _144  and  _147
REMARK   65  A    between atoms: _147  and  _148
REMARK   66  A    between atoms: _151  and  _153
REMARK   67  A    between atoms: _153  and  _154
REMARK   68  A    between atoms: _153  and  _156
REMARK   69  A    between atoms: _156  and  _157
REMARK   70  A    between atoms: _159  and  _161
REMARK   71  A    between atoms: _161  and  _162
REMARK   72  A    between atoms: _164  and  _166
REMARK   73  A    between atoms: _166  and  _167
REMARK   74  A    between atoms: _169  and  _171
REMARK   75  A    between atoms: _171  and  _172
REMARK   76  A    between atoms: _171  and  _174
REMARK   77  A    between atoms: _174  and  _175
REMARK   78  A    between atoms: _178  and  _180
REMARK   79  A    between atoms: _180  and  _181
REMARK   80  A    between atoms: _180  and  _183
REMARK   81  A    between atoms: _186  and  _188
REMARK   82  A    between atoms: _188  and  _189
REMARK   83  A    between atoms: _188  and  _191
REMARK   84  A    between atoms: _191  and  _192
REMARK   85  A    between atoms: _194  and  _196
REMARK   86  A    between atoms: _196  and  _197
REMARK   87  A    between atoms: _196  and  _199
REMARK   88  A    between atoms: _199  and  _200
REMARK   89  A    between atoms: _210  and  _212
REMARK   90  A    between atoms: _212  and  _213
REMARK   91  A    between atoms: _215  and  _217
REMARK   92  A    between atoms: _217  and  _218
REMARK   93  A    between atoms: _217  and  _220
REMARK   94  A    between atoms: _220  and  _221
REMARK   95  A    between atoms: _223  and  _225
REMARK   96  A    between atoms: _225  and  _226
REMARK   97  A    between atoms: _228  and  _230
REMARK   98  A    between atoms: _230  and  _231
REMARK   99  A    between atoms: _230  and  _233
REMARK  100  A    between atoms: _233  and  _234
REMARK  101  A    between atoms: _235  and  _237
REMARK  102  A    between atoms: _237  and  _238
REMARK  103  A    between atoms: _241  and  _243
REMARK  104  A    between atoms: _243  and  _244
REMARK  105  A    between atoms: _243  and  _246
REMARK  106  A    between atoms: _246  and  _247
REMARK  107  A    between atoms: _247  and  _248
REMARK  108  A    between atoms: _253  and  _255
REMARK  109  A    between atoms: _255  and  _256
REMARK  110  A    between atoms: _255  and  _258
REMARK  111  A    between atoms: _258  and  _259
REMARK  112  A    between atoms: _259  and  _260
REMARK  113  A    between atoms: _260  and  _261
REMARK  114  A    between atoms: _261  and  _262
REMARK  115  A    between atoms: _267  and  _268
REMARK  116  A    between atoms: _273  and  _275
REMARK  117  A    between atoms: _275  and  _276
REMARK  118  A    between atoms: _278  and  _280
REMARK  119  A    between atoms: _280  and  _281
REMARK  120  A    between atoms: _280  and  _283
REMARK  121  A    between atoms: _286  and  _288
REMARK  122  A    between atoms: _288  and  _289
REMARK  123  A    between atoms: _288  and  _291
REMARK  124  A    between atoms: _291  and  _292
REMARK  125  A    between atoms: _297  and  _298
REMARK                            x       y       z     vdW  Elec       q    Type
REMARK                         _______ _______ _______ _____ _____    ______ ____
ROOT
ATOM      1  CA  ILE A   1      29.411  26.518  19.314  0.00  0.00    +0.133 C 
ENDROOT
BRANCH   1   2
ATOM      2  N   ILE A   1      29.555  27.890  18.776  0.00  0.00    -0.239 NA
ATOM      3  H   ILE A   1      30.358  28.100  18.150  0.00  0.00    +0.142 HD
ENDBRANCH   1   2
BRANCH   1   4
ATOM      4  C   ILE A   1      30.567  26.298  20.278  0.00  0.00    +0.224 C 
ATOM      5  O   ILE A   1      31.706  26.695  19.963  0.00  0.00    -0.287 OA
ENDBRANCH   1   4
BRANCH   1   6
ATOM      6  CB  ILE A   1      29.421  25.496  18.162  0.00  0.00    +0.023 C 
ATOM      7  CG2 ILE A   1      29.176  24.103  18.706  0.00  0.00    +0.002 C 
BRANCH   6   8
ATOM      8  CG1 ILE A   1      28.452  25.908  17.041  0.00  0.00    +0.002 C 
ATOM      9  CD1 ILE A   1      28.423  24.954  15.856  0.00  0.00    +0.000 C 
ENDBRANCH   6   8
ENDBRANCH   1   6
TORSDOF 4
REMARK  Name = ../refined-set-2016/1utn/1utn_pocket.pdb
REMARK  125 active torsions:
REMARK  status: ('A' for Active; 'I' for Inactive)
REMARK    1  A    between atoms: _1  and  _5
REMARK    2  A    between atoms: _5  and  _6
REMARK    3  A    between atoms: _5  and  _8
REMARK    4  A    between atoms: _8  and  _9
REMARK    5  A    between atoms: _12  and  _14
REMARK    6  A    between atoms: _14  and  _15
REMARK    7  A    between atoms: _14  and  _17
REMARK    8  A    between atoms: _20  and  _22
REMARK    9  A    between atoms: _22  and  _23
REMARK   10  A    between atoms: _22  and  _25
REMARK   11  A    between atoms: _25  and  _26
REMARK   12  A    between atoms: _31  and  _33
REMARK   13  A    between atoms: _33  and  _34
REMARK   14  A    between atoms: _33  and  _36
REMARK   15  A    between atoms: _36  and  _37
REMARK   16  A    between atoms: _40  and  _42
REMARK   17  A    between atoms: _42  and  _43
REMARK   18  A    between atoms: _42  and  _45
REMARK   19  A    between atoms: _45  and  _46
REMARK   20  A    between atoms: _49  and  _51
REMARK   21  A    between atoms: _51  and  _52
REMARK   22  A    between atoms: _51  and  _54
REMARK   23  A    between atoms: _54  and  _55
REMARK   24  A    between atoms: _60  and  _62
REMARK   25  A    between atoms: _62  and  _63
REMARK   26  A    between atoms: _62  and  _65
REMARK   27  A    between atoms: _65  and  _66
REMARK   28  A    between atoms: _68  and  _70
REMARK   29  A    between atoms: _70  and  _71
REMARK   30  A    between atoms: _70  and  _73
REMARK   31  A    between atoms: _73  and  _74
REMARK   32  A    between atoms: _79  and  _80
REMARK   33  A    between atoms: _82  and  _84
REMARK   34  A    between atoms: _84  and  _85
REMARK   35  A    between atoms: _88  and  _90
REMARK   36  A    between atoms: _90  and  _91
REMARK   37  A    between atoms: _90  and  _93
REMARK   38  A    between atoms: _93  and  _94
REMARK   39  A    between atoms: _94  and  _95
REMARK   40  A    between atoms: _95  and  _96
REMARK   41  A    between atoms: _96  and  _97
REMARK   42  A    between atoms: _101  and  _103
REMARK   43  A    between atoms: _103  and  _104
REMARK   44  A    between atoms: _103  and  _106
REMARK   45  A    between atoms: _106  and  _107
REMARK   46  A    between atoms: _110  and  _112
REMARK   47  A    between atoms: _112  and  _113
REMARK   48  A    between atoms: _112  and  _115
REMARK   49  A    between atoms: _115  and  _116
REMARK   50  A    between atoms: _118  and  _120
REMARK   51  A    between atoms: _120  and  _121
REMARK   52  A    between atoms: _120  and  _123
REMARK   53  A    between atoms: _123  and  _124
REMARK   54  A    between atoms: _124  and  _234
REMARK   55  A    between atoms: _125  and  _127
REMARK   56  A    between atoms: _127  and  _128
REMARK   57  A    between atoms: _127  and  _130
REMARK   58  A    between atoms: _130  and  _131
REMARK   59  A    between atoms: _131  and  _132
REMARK   60  A    between atoms: _137  and  _139
REMARK   61  A    between atoms: _139  and  _140
REMARK   62  A    between atoms: _142  and  _144
REMARK   63  A    between atoms: _144  and  _145
REMARK   64  A    between atoms: _144  and  _147
REMARK   65  A    between atoms: _147  and  _148
REMARK   66  A    between atoms: _151  and  _153
REMARK   67  A    between atoms: _153  and  _154
REMARK   68  A    between atoms: _153  and  _156
REMARK   69  A    between atoms: _156  and  _157
REMARK   70  A    between atoms: _159  and  _161
REMARK   71  A    between atoms: _161  and  _162
REMARK   72  A    between atoms: _164  and  _166
REMARK   73  A    between atoms: _166  and  _167
REMARK   74  A    between atoms: _169  and  _171
REMARK   75  A    between atoms: _171  and  _172
REMARK   76  A    between atoms: _171  and  _174
REMARK   77  A    between atoms: _174  and  _175
REMARK   78  A    between atoms: _178  and  _180
REMARK   79  A    between atoms: _180  and  _181
REMARK   80  A    between atoms: _180  and  _183
REMARK   81  A    between atoms: _186  and  _188
REMARK   82  A    between atoms: _188  and  _189
REMARK   83  A    between atoms: _188  and  _191
REMARK   84  A    between atoms: _191  and  _192
REMARK   85  A    between atoms: _194  and  _196
REMARK   86  A    between atoms: _196  and  _197
REMARK   87  A    between atoms: _196  and  _199
REMARK   88  A    between atoms: _199  and  _200
REMARK   89  A    between atoms: _210  and  _212
REMARK   90  A    between atoms: _212  and  _213
REMARK   91  A    between atoms: _215  and  _217
REMARK   92  A    between atoms: _217  and  _218
REMARK   93  A    between atoms: _217  and  _220
REMARK   94  A    between atoms: _220  and  _221
REMARK   95  A    between atoms: _223  and  _225
REMARK   96  A    between atoms: _225  and  _226
REMARK   97  A    between atoms: _228  and  _230
REMARK   98  A    between atoms: _230  and  _231
REMARK   99  A    between atoms: _230  and  _233
REMARK  100  A    between atoms: _233  and  _234
REMARK  101  A    between atoms: _235  and  _237
REMARK  102  A    between atoms: _237  and  _238
REMARK  103  A    between atoms: _241  and  _243
REMARK  104  A    between atoms: _243  and  _244
REMARK  105  A    between atoms: _243  and  _246
REMARK  106  A    between atoms: _246  and  _247
REMARK  107  A    between atoms: _247  and  _248
REMARK  108  A    between atoms: _253  and  _255
REMARK  109  A    between atoms: _255  and  _256
REMARK  110  A    between atoms: _255  and  _258
REMARK  111  A    between atoms: _258  and  _259
REMARK  112  A    between atoms: _259  and  _260
REMARK  113  A    between atoms: _260  and  _261
REMARK  114  A    between atoms: _261  and  _262
REMARK  115  A    between atoms: _267  and  _268
REMARK  116  A    between atoms: _273  and  _275
REMARK  117  A    between atoms: _275  and  _276
REMARK  118  A    between atoms: _278  and  _280
REMARK  119  A    between atoms: _280  and  _281
REMARK  120  A    between atoms: _280  and  _283
REMARK  121  A    between atoms: _286  and  _288
REMARK  122  A    between atoms: _288  and  _289
REMARK  123  A    between atoms: _288  and  _291
REMARK  124  A    between atoms: _291  and  _292
REMARK  125  A    between atoms: _297  and  _298
REMARK                            x       y       z     vdW  Elec       q    Type
REMARK                         _______ _______ _______ _____ _____    ______ ____
ROOT
ATOM      1  CB  ASN A   1      37.030  14.575  20.530  0.00  0.00    +0.110 C 
ENDROOT
BRANCH   1   2
ATOM      2  CG  ASN A   1      38.160  13.920  19.815  0.00  0.00    +0.221 C 
ATOM      3  OD1 ASN A   1      39.321  14.316  19.838  0.00  0.00    -0.275 OA
ATOM      4  ND2 ASN A   1      37.853  12.765  19.196  0.00  0.00    -0.329 N 
ATOM      5 HD21 ASN A   1      36.868  12.431  19.177  0.00  0.00    +0.145 HD
ATOM      6 HD22 ASN A   1      38.600  12.207  18.736  0.00  0.00    +0.145 HD
ENDBRANCH   1   2
BRANCH   1   7
ATOM      7  CA  ASN A   1      37.381  15.920  21.215  0.00  0.00    +0.142 C 
BRANCH   7   8
ATOM      8  N   ASN A   1      36.218  16.301  21.987  0.00  0.00    -0.239 NA
ATOM      9  H   ASN A   1      35.429  15.625  22.030  0.00  0.00    +0.142 HD
ENDBRANCH   7   8
BRANCH   7  10
ATOM     10  C   ASN A   1      37.726  16.989  20.224  0.00  0.00    +0.225 C 
ATOM     11  O   ASN A   1      36.860  17.569  19.556  0.00  0.00    -0.287 OA
ENDBRANCH   7  10
ENDBRANCH   1   7
TORSDOF 4
REMARK  Name = ../refined-set-2016/1utn/1utn_pocket.pdb
REMARK  125 active torsions:
REMARK  status: ('A' for Active; 'I' for Inactive)
REMARK    1  A    between atoms: _1  and  _5
REMARK    2  A    between atoms: _5  and  _6
REMARK    3  A    between atoms: _5  and  _8
REMARK    4  A    between atoms: _8  and  _9
REMARK    5  A    between atoms: _12  and  _14
REMARK    6  A    between atoms: _14  and  _15
REMARK    7  A    between atoms: _14  and  _17
REMARK    8  A    between atoms: _20  and  _22
REMARK    9  A    between atoms: _22  and  _23
REMARK   10  A    between atoms: _22  and  _25
REMARK   11  A    between atoms: _25  and  _26
REMARK   12  A    between atoms: _31  and  _33
REMARK   13  A    between atoms: _33  and  _34
REMARK   14  A    between atoms: _33  and  _36
REMARK   15  A    between atoms: _36  and  _37
REMARK   16  A    between atoms: _40  and  _42
REMARK   17  A    between atoms: _42  and  _43
REMARK   18  A    between atoms: _42  and  _45
REMARK   19  A    between atoms: _45  and  _46
REMARK   20  A    between atoms: _49  and  _51
REMARK   21  A    between atoms: _51  and  _52
REMARK   22  A    between atoms: _51  and  _54
REMARK   23  A    between atoms: _54  and  _55
REMARK   24  A    between atoms: _60  and  _62
REMARK   25  A    between atoms: _62  and  _63
REMARK   26  A    between atoms: _62  and  _65
REMARK   27  A    between atoms: _65  and  _66
REMARK   28  A    between atoms: _68  and  _70
REMARK   29  A    between atoms: _70  and  _71
REMARK   30  A    between atoms: _70  and  _73
REMARK   31  A    between atoms: _73  and  _74
REMARK   32  A    between atoms: _79  and  _80
REMARK   33  A    between atoms: _82  and  _84
REMARK   34  A    between atoms: _84  and  _85
REMARK   35  A    between atoms: _88  and  _90
REMARK   36  A    between atoms: _90  and  _91
REMARK   37  A    between atoms: _90  and  _93
REMARK   38  A    between atoms: _93  and  _94
REMARK   39  A    between atoms: _94  and  _95
REMARK   40  A    between atoms: _95  and  _96
REMARK   41  A    between atoms: _96  and  _97
REMARK   42  A    between atoms: _101  and  _103
REMARK   43  A    between atoms: _103  and  _104
REMARK   44  A    between atoms: _103  and  _106
REMARK   45  A    between atoms: _106  and  _107
REMARK   46  A    between atoms: _110  and  _112
REMARK   47  A    between atoms: _112  and  _113
REMARK   48  A    between atoms: _112  and  _115
REMARK   49  A    between atoms: _115  and  _116
REMARK   50  A    between atoms: _118  and  _120
REMARK   51  A    between atoms: _120  and  _121
REMARK   52  A    between atoms: _120  and  _123
REMARK   53  A    between atoms: _123  and  _124
REMARK   54  A    between atoms: _124  and  _234
REMARK   55  A    between atoms: _125  and  _127
REMARK   56  A    between atoms: _127  and  _128
REMARK   57  A    between atoms: _127  and  _130
REMARK   58  A    between atoms: _130  and  _131
REMARK   59  A    between atoms: _131  and  _132
REMARK   60  A    between atoms: _137  and  _139
REMARK   61  A    between atoms: _139  and  _140
REMARK   62  A    between atoms: _142  and  _144
REMARK   63  A    between atoms: _144  and  _145
REMARK   64  A    between atoms: _144  and  _147
REMARK   65  A    between atoms: _147  and  _148
REMARK   66  A    between atoms: _151  and  _153
REMARK   67  A    between atoms: _153  and  _154
REMARK   68  A    between atoms: _153  and  _156
REMARK   69  A    between atoms: _156  and  _157
REMARK   70  A    between atoms: _159  and  _161
REMARK   71  A    between atoms: _161  and  _162
REMARK   72  A    between atoms: _164  and  _166
REMARK   73  A    between atoms: _166  and  _167
REMARK   74  A    between atoms: _169  and  _171
REMARK   75  A    between atoms: _171  and  _172
REMARK   76  A    between atoms: _171  and  _174
REMARK   77  A    between atoms: _174  and  _175
REMARK   78  A    between atoms: _178  and  _180
REMARK   79  A    between atoms: _180  and  _181
REMARK   80  A    between atoms: _180  and  _183
REMARK   81  A    between atoms: _186  and  _188
REMARK   82  A    between atoms: _188  and  _189
REMARK   83  A    between atoms: _188  and  _191
REMARK   84  A    between atoms: _191  and  _192
REMARK   85  A    between atoms: _194  and  _196
REMARK   86  A    between atoms: _196  and  _197
REMARK   87  A    between atoms: _196  and  _199
REMARK   88  A    between atoms: _199  and  _200
REMARK   89  A    between atoms: _210  and  _212
REMARK   90  A    between atoms: _212  and  _213
REMARK   91  A    between atoms: _215  and  _217
REMARK   92  A    between atoms: _217  and  _218
REMARK   93  A    between atoms: _217  and  _220
REMARK   94  A    between atoms: _220  and  _221
REMARK   95  A    between atoms: _223  and  _225
REMARK   96  A    between atoms: _225  and  _226
REMARK   97  A    between atoms: _228  and  _230
REMARK   98  A    between atoms: _230  and  _231
REMARK   99  A    between atoms: _230  and  _233
REMARK  100  A    between atoms: _233  and  _234
REMARK  101  A    between atoms: _235  and  _237
REMARK  102  A    between atoms: _237  and  _238
REMARK  103  A    between atoms: _241  and  _243
REMARK  104  A    between atoms: _243  and  _244
REMARK  105  A    between atoms: _243  and  _246
REMARK  106  A    between atoms: _246  and  _247
REMARK  107  A    between atoms: _247  and  _248
REMARK  108  A    between atoms: _253  and  _255
REMARK  109  A    between atoms: _255  and  _256
REMARK  110  A    between atoms: _255  and  _258
REMARK  111  A    between atoms: _258  and  _259
REMARK  112  A    between atoms: _259  and  _260
REMARK  113  A    between atoms: _260  and  _261
REMARK  114  A    between atoms: _261  and  _262
REMARK  115  A    between atoms: _267  and  _268
REMARK  116  A    between atoms: _273  and  _275
REMARK  117  A    between atoms: _275  and  _276
REMARK  118  A    between atoms: _278  and  _280
REMARK  119  A    between atoms: _280  and  _281
REMARK  120  A    between atoms: _280  and  _283
REMARK  121  A    between atoms: _286  and  _288
REMARK  122  A    between atoms: _288  and  _289
REMARK  123  A    between atoms: _288  and  _291
REMARK  124  A    between atoms: _291  and  _292
REMARK  125  A    between atoms: _297  and  _298
REMARK                            x       y       z     vdW  Elec       q    Type
REMARK                         _______ _______ _______ _____ _____    ______ ____
ROOT
ATOM      1  CA  SER A   1      38.827  14.695  13.304  0.00  0.00    +0.163 C 
ENDROOT
BRANCH   1   2
ATOM      2  N   SER A   1      39.676  15.373  14.276  0.00  0.00    -0.237 NA
ATOM      3  H   SER A   1      40.390  16.052  13.943  0.00  0.00    +0.142 HD
ENDBRANCH   1   2
BRANCH   1   4
ATOM      4  CB  SER A   1      39.154  13.198  13.210  0.00  0.00    +0.227 C 
ATOM      5  OG  SER A   1      38.287  12.357  13.024  0.00  0.00    -0.287 OA
ENDBRANCH   1   4
BRANCH   1   6
ATOM      6  C   SER A   1      39.014  15.361  11.941  0.00  0.00    +0.162 C 
BRANCH   6   7
ATOM      7  O   SER A   1      38.158  14.635  11.016  0.00  0.00    -0.380 OA
ATOM      8  H   SER A   1      37.218  14.699  11.319  0.00  0.00    +0.211 HD
ENDBRANCH   6   7
ENDBRANCH   1   6
TORSDOF 4
REMARK  Name = ../refined-set-2016/1utn/1utn_pocket.pdb
REMARK  125 active torsions:
REMARK  status: ('A' for Active; 'I' for Inactive)
REMARK    1  A    between atoms: _1  and  _5
REMARK    2  A    between atoms: _5  and  _6
REMARK    3  A    between atoms: _5  and  _8
REMARK    4  A    between atoms: _8  and  _9
REMARK    5  A    between atoms: _12  and  _14
REMARK    6  A    between atoms: _14  and  _15
REMARK    7  A    between atoms: _14  and  _17
REMARK    8  A    between atoms: _20  and  _22
REMARK    9  A    between atoms: _22  and  _23
REMARK   10  A    between atoms: _22  and  _25
REMARK   11  A    between atoms: _25  and  _26
REMARK   12  A    between atoms: _31  and  _33
REMARK   13  A    between atoms: _33  and  _34
REMARK   14  A    between atoms: _33  and  _36
REMARK   15  A    between atoms: _36  and  _37
REMARK   16  A    between atoms: _40  and  _42
REMARK   17  A    between atoms: _42  and  _43
REMARK   18  A    between atoms: _42  and  _45
REMARK   19  A    between atoms: _45  and  _46
REMARK   20  A    between atoms: _49  and  _51
REMARK   21  A    between atoms: _51  and  _52
REMARK   22  A    between atoms: _51  and  _54
REMARK   23  A    between atoms: _54  and  _55
REMARK   24  A    between atoms: _60  and  _62
REMARK   25  A    between atoms: _62  and  _63
REMARK   26  A    between atoms: _62  and  _65
REMARK   27  A    between atoms: _65  and  _66
REMARK   28  A    between atoms: _68  and  _70
REMARK   29  A    between atoms: _70  and  _71
REMARK   30  A    between atoms: _70  and  _73
REMARK   31  A    between atoms: _73  and  _74
REMARK   32  A    between atoms: _79  and  _80
REMARK   33  A    between atoms: _82  and  _84
REMARK   34  A    between atoms: _84  and  _85
REMARK   35  A    between atoms: _88  and  _90
REMARK   36  A    between atoms: _90  and  _91
REMARK   37  A    between atoms: _90  and  _93
REMARK   38  A    between atoms: _93  and  _94
REMARK   39  A    between atoms: _94  and  _95
REMARK   40  A    between atoms: _95  and  _96
REMARK   41  A    between atoms: _96  and  _97
REMARK   42  A    between atoms: _101  and  _103
REMARK   43  A    between atoms: _103  and  _104
REMARK   44  A    between atoms: _103  and  _106
REMARK   45  A    between atoms: _106  and  _107
REMARK   46  A    between atoms: _110  and  _112
REMARK   47  A    between atoms: _112  and  _113
REMARK   48  A    between atoms: _112  and  _115
REMARK   49  A    between atoms: _115  and  _116
REMARK   50  A    between atoms: _118  and  _120
REMARK   51  A    between atoms: _120  and  _121
REMARK   52  A    between atoms: _120  and  _123
REMARK   53  A    between atoms: _123  and  _124
REMARK   54  A    between atoms: _124  and  _234
REMARK   55  A    between atoms: _125  and  _127
REMARK   56  A    between atoms: _127  and  _128
REMARK   57  A    between atoms: _127  and  _130
REMARK   58  A    between atoms: _130  and  _131
REMARK   59  A    between atoms: _131  and  _132
REMARK   60  A    between atoms: _137  and  _139
REMARK   61  A    between atoms: _139  and  _140
REMARK   62  A    between atoms: _142  and  _144
REMARK   63  A    between atoms: _144  and  _145
REMARK   64  A    between atoms: _144  and  _147
REMARK   65  A    between atoms: _147  and  _148
REMARK   66  A    between atoms: _151  and  _153
REMARK   67  A    between atoms: _153  and  _154
REMARK   68  A    between atoms: _153  and  _156
REMARK   69  A    between atoms: _156  and  _157
REMARK   70  A    between atoms: _159  and  _161
REMARK   71  A    between atoms: _161  and  _162
REMARK   72  A    between atoms: _164  and  _166
REMARK   73  A    between atoms: _166  and  _167
REMARK   74  A    between atoms: _169  and  _171
REMARK   75  A    between atoms: _171  and  _172
REMARK   76  A    between atoms: _171  and  _174
REMARK   77  A    between atoms: _174  and  _175
REMARK   78  A    between atoms: _178  and  _180
REMARK   79  A    between atoms: _180  and  _181
REMARK   80  A    between atoms: _180  and  _183
REMARK   81  A    between atoms: _186  and  _188
REMARK   82  A    between atoms: _188  and  _189
REMARK   83  A    between atoms: _188  and  _191
REMARK   84  A    between atoms: _191  and  _192
REMARK   85  A    between atoms: _194  and  _196
REMARK   86  A    between atoms: _196  and  _197
REMARK   87  A    between atoms: _196  and  _199
REMARK   88  A    between atoms: _199  and  _200
REMARK   89  A    between atoms: _210  and  _212
REMARK   90  A    between atoms: _212  and  _213
REMARK   91  A    between atoms: _215  and  _217
REMARK   92  A    between atoms: _217  and  _218
REMARK   93  A    between atoms: _217  and  _220
REMARK   94  A    between atoms: _220  and  _221
REMARK   95  A    between atoms: _223  and  _225
REMARK   96  A    between atoms: _225  and  _226
REMARK   97  A    between atoms: _228  and  _230
REMARK   98  A    between atoms: _230  and  _231
REMARK   99  A    between atoms: _230  and  _233
REMARK  100  A    between atoms: _233  and  _234
REMARK  101  A    between atoms: _235  and  _237
REMARK  102  A    between atoms: _237  and  _238
REMARK  103  A    between atoms: _241  and  _243
REMARK  104  A    between atoms: _243  and  _244
REMARK  105  A    between atoms: _243  and  _246
REMARK  106  A    between atoms: _246  and  _247
REMARK  107  A    between atoms: _247  and  _248
REMARK  108  A    between atoms: _253  and  _255
REMARK  109  A    between atoms: _255  and  _256
REMARK  110  A    between atoms: _255  and  _258
REMARK  111  A    between atoms: _258  and  _259
REMARK  112  A    between atoms: _259  and  _260
REMARK  113  A    between atoms: _260  and  _261
REMARK  114  A    between atoms: _261  and  _262
REMARK  115  A    between atoms: _267  and  _268
REMARK  116  A    between atoms: _273  and  _275
REMARK  117  A    between atoms: _275  and  _276
REMARK  118  A    between atoms: _278  and  _280
REMARK  119  A    between atoms: _280  and  _281
REMARK  120  A    between atoms: _280  and  _283
REMARK  121  A    between atoms: _286  and  _288
REMARK  122  A    between atoms: _288  and  _289
REMARK  123  A    between atoms: _288  and  _291
REMARK  124  A    between atoms: _291  and  _292
REMARK  125  A    between atoms: _297  and  _298
REMARK                            x       y       z     vdW  Elec       q    Type
REMARK                         _______ _______ _______ _____ _____    ______ ____
ROOT
ATOM      1  CG  TYR A   1      23.287  14.141   7.494  0.00  0.00    -0.020 A 
ATOM      2  CD2 TYR A   1      24.163  13.140   7.903  0.00  0.00    -0.001 A 
ATOM      3  CE2 TYR A   1      25.371  13.396   8.511  0.00  0.00    +0.036 A 
ATOM      4  CZ  TYR A   1      25.734  14.709   8.724  0.00  0.00    +0.134 A 
ATOM      5  CE1 TYR A   1      24.892  15.737   8.340  0.00  0.00    +0.036 A 
ATOM      6  CD1 TYR A   1      23.687  15.466   7.719  0.00  0.00    -0.001 A 
ENDROOT
BRANCH   4   7
ATOM      7  OH  TYR A   1      26.941  14.952   9.348  0.00  0.00    -0.506 OA
ATOM      8  HH  TYR A   1      26.781  15.438  10.195  0.00  0.00    +0.292 HD
ENDBRANCH   4   7
BRANCH   1   9
ATOM      9  CB  TYR A   1      21.971  13.830   6.830  0.00  0.00    +0.051 C 
BRANCH   9  10
ATOM     10  CA  TYR A   1      22.072  13.423   5.363  0.00  0.00    +0.137 C 
BRANCH  10  11
ATOM     11  N   TYR A   1      22.686  14.519   4.584  0.00  0.00    -0.239 NA
ATOM     12  H   TYR A   1      22.104  15.359   4.391  0.00  0.00    +0.142 HD
ENDBRANCH  10  11
BRANCH  10  13
ATOM     13  C   TYR A   1      20.729  13.033   4.797  0.00  0.00    +0.224 C 
ATOM     14  O   TYR A   1      19.682  13.285   5.426  0.00  0.00    -0.287 OA
ENDBRANCH  10  13
ENDBRANCH   9  10
ENDBRANCH   1   9
TORSDOF 5
REMARK  Name = ../refined-set-2016/1utn/1utn_pocket.pdb
REMARK  125 active torsions:
REMARK  status: ('A' for Active; 'I' for Inactive)
REMARK    1  A    between atoms: _1  and  _5
REMARK    2  A    between atoms: _5  and  _6
REMARK    3  A    between atoms: _5  and  _8
REMARK    4  A    between atoms: _8  and  _9
REMARK    5  A    between atoms: _12  and  _14
REMARK    6  A    between atoms: _14  and  _15
REMARK    7  A    between atoms: _14  and  _17
REMARK    8  A    between atoms: _20  and  _22
REMARK    9  A    between atoms: _22  and  _23
REMARK   10  A    between atoms: _22  and  _25
REMARK   11  A    between atoms: _25  and  _26
REMARK   12  A    between atoms: _31  and  _33
REMARK   13  A    between atoms: _33  and  _34
REMARK   14  A    between atoms: _33  and  _36
REMARK   15  A    between atoms: _36  and  _37
REMARK   16  A    between atoms: _40  and  _42
REMARK   17  A    between atoms: _42  and  _43
REMARK   18  A    between atoms: _42  and  _45
REMARK   19  A    between atoms: _45  and  _46
REMARK   20  A    between atoms: _49  and  _51
REMARK   21  A    between atoms: _51  and  _52
REMARK   22  A    between atoms: _51  and  _54
REMARK   23  A    between atoms: _54  and  _55
REMARK   24  A    between atoms: _60  and  _62
REMARK   25  A    between atoms: _62  and  _63
REMARK   26  A    between atoms: _62  and  _65
REMARK   27  A    between atoms: _65  and  _66
REMARK   28  A    between atoms: _68  and  _70
REMARK   29  A    between atoms: _70  and  _71
REMARK   30  A    between atoms: _70  and  _73
REMARK   31  A    between atoms: _73  and  _74
REMARK   32  A    between atoms: _79  and  _80
REMARK   33  A    between atoms: _82  and  _84
REMARK   34  A    between atoms: _84  and  _85
REMARK   35  A    between atoms: _88  and  _90
REMARK   36  A    between atoms: _90  and  _91
REMARK   37  A    between atoms: _90  and  _93
REMARK   38  A    between atoms: _93  and  _94
REMARK   39  A    between atoms: _94  and  _95
REMARK   40  A    between atoms: _95  and  _96
REMARK   41  A    between atoms: _96  and  _97
REMARK   42  A    between atoms: _101  and  _103
REMARK   43  A    between atoms: _103  and  _104
REMARK   44  A    between atoms: _103  and  _106
REMARK   45  A    between atoms: _106  and  _107
REMARK   46  A    between atoms: _110  and  _112
REMARK   47  A    between atoms: _112  and  _113
REMARK   48  A    between atoms: _112  and  _115
REMARK   49  A    between atoms: _115  and  _116
REMARK   50  A    between atoms: _118  and  _120
REMARK   51  A    between atoms: _120  and  _121
REMARK   52  A    between atoms: _120  and  _123
REMARK   53  A    between atoms: _123  and  _124
REMARK   54  A    between atoms: _124  and  _234
REMARK   55  A    between atoms: _125  and  _127
REMARK   56  A    between atoms: _127  and  _128
REMARK   57  A    between atoms: _127  and  _130
REMARK   58  A    between atoms: _130  and  _131
REMARK   59  A    between atoms: _131  and  _132
REMARK   60  A    between atoms: _137  and  _139
REMARK   61  A    between atoms: _139  and  _140
REMARK   62  A    between atoms: _142  and  _144
REMARK   63  A    between atoms: _144  and  _145
REMARK   64  A    between atoms: _144  and  _147
REMARK   65  A    between atoms: _147  and  _148
REMARK   66  A    between atoms: _151  and  _153
REMARK   67  A    between atoms: _153  and  _154
REMARK   68  A    between atoms: _153  and  _156
REMARK   69  A    between atoms: _156  and  _157
REMARK   70  A    between atoms: _159  and  _161
REMARK   71  A    between atoms: _161  and  _162
REMARK   72  A    between atoms: _164  and  _166
REMARK   73  A    between atoms: _166  and  _167
REMARK   74  A    between atoms: _169  and  _171
REMARK   75  A    between atoms: _171  and  _172
REMARK   76  A    between atoms: _171  and  _174
REMARK   77  A    between atoms: _174  and  _175
REMARK   78  A    between atoms: _178  and  _180
REMARK   79  A    between atoms: _180  and  _181
REMARK   80  A    between atoms: _180  and  _183
REMARK   81  A    between atoms: _186  and  _188
REMARK   82  A    between atoms: _188  and  _189
REMARK   83  A    between atoms: _188  and  _191
REMARK   84  A    between atoms: _191  and  _192
REMARK   85  A    between atoms: _194  and  _196
REMARK   86  A    between atoms: _196  and  _197
REMARK   87  A    between atoms: _196  and  _199
REMARK   88  A    between atoms: _199  and  _200
REMARK   89  A    between atoms: _210  and  _212
REMARK   90  A    between atoms: _212  and  _213
REMARK   91  A    between atoms: _215  and  _217
REMARK   92  A    between atoms: _217  and  _218
REMARK   93  A    between atoms: _217  and  _220
REMARK   94  A    between atoms: _220  and  _221
REMARK   95  A    between atoms: _223  and  _225
REMARK   96  A    between atoms: _225  and  _226
REMARK   97  A    between atoms: _228  and  _230
REMARK   98  A    between atoms: _230  and  _231
REMARK   99  A    between atoms: _230  and  _233
REMARK  100  A    between atoms: _233  and  _234
REMARK  101  A    between atoms: _235  and  _237
REMARK  102  A    between atoms: _237  and  _238
REMARK  103  A    between atoms: _241  and  _243
REMARK  104  A    between atoms: _243  and  _244
REMARK  105  A    between atoms: _243  and  _246
REMARK  106  A    between atoms: _246  and  _247
REMARK  107  A    between atoms: _247  and  _248
REMARK  108  A    between atoms: _253  and  _255
REMARK  109  A    between atoms: _255  and  _256
REMARK  110  A    between atoms: _255  and  _258
REMARK  111  A    between atoms: _258  and  _259
REMARK  112  A    between atoms: _259  and  _260
REMARK  113  A    between atoms: _260  and  _261
REMARK  114  A    between atoms: _261  and  _262
REMARK  115  A    between atoms: _267  and  _268
REMARK  116  A    between atoms: _273  and  _275
REMARK  117  A    between atoms: _275  and  _276
REMARK  118  A    between atoms: _278  and  _280
REMARK  119  A    between atoms: _280  and  _281
REMARK  120  A    between atoms: _280  and  _283
REMARK  121  A    between atoms: _286  and  _288
REMARK  122  A    between atoms: _288  and  _289
REMARK  123  A    between atoms: _288  and  _291
REMARK  124  A    between atoms: _291  and  _292
REMARK  125  A    between atoms: _297  and  _298
REMARK                            x       y       z     vdW  Elec       q    Type
REMARK                         _______ _______ _______ _____ _____    ______ ____
ROOT
ATOM      1  CA  ALA A   1      25.884  24.196  10.815  0.00  0.00    +0.133 C 
ATOM      2  CB  ALA A   1      25.732  25.001  12.087  0.00  0.00    +0.027 C 
ENDROOT
BRANCH   1   3
ATOM      3  N   ALA A   1      24.988  23.059  10.748  0.00  0.00    -0.239 NA
ATOM      4  H   ALA A   1      25.300  22.151  11.148  0.00  0.00    +0.142 HD
ENDBRANCH   1   3
BRANCH   1   5
ATOM      5  C   ALA A   1      27.300  23.700  10.653  0.00  0.00    +0.224 C 
ATOM      6  O   ALA A   1      27.596  22.597  11.126  0.00  0.00    -0.287 OA
ENDBRANCH   1   5
TORSDOF 2
REMARK  Name = ../refined-set-2016/1utn/1utn_pocket.pdb
REMARK  125 active torsions:
REMARK  status: ('A' for Active; 'I' for Inactive)
REMARK    1  A    between atoms: _1  and  _5
REMARK    2  A    between atoms: _5  and  _6
REMARK    3  A    between atoms: _5  and  _8
REMARK    4  A    between atoms: _8  and  _9
REMARK    5  A    between atoms: _12  and  _14
REMARK    6  A    between atoms: _14  and  _15
REMARK    7  A    between atoms: _14  and  _17
REMARK    8  A    between atoms: _20  and  _22
REMARK    9  A    between atoms: _22  and  _23
REMARK   10  A    between atoms: _22  and  _25
REMARK   11  A    between atoms: _25  and  _26
REMARK   12  A    between atoms: _31  and  _33
REMARK   13  A    between atoms: _33  and  _34
REMARK   14  A    between atoms: _33  and  _36
REMARK   15  A    between atoms: _36  and  _37
REMARK   16  A    between atoms: _40  and  _42
REMARK   17  A    between atoms: _42  and  _43
REMARK   18  A    between atoms: _42  and  _45
REMARK   19  A    between atoms: _45  and  _46
REMARK   20  A    between atoms: _49  and  _51
REMARK   21  A    between atoms: _51  and  _52
REMARK   22  A    between atoms: _51  and  _54
REMARK   23  A    between atoms: _54  and  _55
REMARK   24  A    between atoms: _60  and  _62
REMARK   25  A    between atoms: _62  and  _63
REMARK   26  A    between atoms: _62  and  _65
REMARK   27  A    between atoms: _65  and  _66
REMARK   28  A    between atoms: _68  and  _70
REMARK   29  A    between atoms: _70  and  _71
REMARK   30  A    between atoms: _70  and  _73
REMARK   31  A    between atoms: _73  and  _74
REMARK   32  A    between atoms: _79  and  _80
REMARK   33  A    between atoms: _82  and  _84
REMARK   34  A    between atoms: _84  and  _85
REMARK   35  A    between atoms: _88  and  _90
REMARK   36  A    between atoms: _90  and  _91
REMARK   37  A    between atoms: _90  and  _93
REMARK   38  A    between atoms: _93  and  _94
REMARK   39  A    between atoms: _94  and  _95
REMARK   40  A    between atoms: _95  and  _96
REMARK   41  A    between atoms: _96  and  _97
REMARK   42  A    between atoms: _101  and  _103
REMARK   43  A    between atoms: _103  and  _104
REMARK   44  A    between atoms: _103  and  _106
REMARK   45  A    between atoms: _106  and  _107
REMARK   46  A    between atoms: _110  and  _112
REMARK   47  A    between atoms: _112  and  _113
REMARK   48  A    between atoms: _112  and  _115
REMARK   49  A    between atoms: _115  and  _116
REMARK   50  A    between atoms: _118  and  _120
REMARK   51  A    between atoms: _120  and  _121
REMARK   52  A    between atoms: _120  and  _123
REMARK   53  A    between atoms: _123  and  _124
REMARK   54  A    between atoms: _124  and  _234
REMARK   55  A    between atoms: _125  and  _127
REMARK   56  A    between atoms: _127  and  _128
REMARK   57  A    between atoms: _127  and  _130
REMARK   58  A    between atoms: _130  and  _131
REMARK   59  A    between atoms: _131  and  _132
REMARK   60  A    between atoms: _137  and  _139
REMARK   61  A    between atoms: _139  and  _140
REMARK   62  A    between atoms: _142  and  _144
REMARK   63  A    between atoms: _144  and  _145
REMARK   64  A    between atoms: _144  and  _147
REMARK   65  A    between atoms: _147  and  _148
REMARK   66  A    between atoms: _151  and  _153
REMARK   67  A    between atoms: _153  and  _154
REMARK   68  A    between atoms: _153  and  _156
REMARK   69  A    between atoms: _156  and  _157
REMARK   70  A    between atoms: _159  and  _161
REMARK   71  A    between atoms: _161  and  _162
REMARK   72  A    between atoms: _164  and  _166
REMARK   73  A    between atoms: _166  and  _167
REMARK   74  A    between atoms: _169  and  _171
REMARK   75  A    between atoms: _171  and  _172
REMARK   76  A    between atoms: _171  and  _174
REMARK   77  A    between atoms: _174  and  _175
REMARK   78  A    between atoms: _178  and  _180
REMARK   79  A    between atoms: _180  and  _181
REMARK   80  A    between atoms: _180  and  _183
REMARK   81  A    between atoms: _186  and  _188
REMARK   82  A    between atoms: _188  and  _189
REMARK   83  A    between atoms: _188  and  _191
REMARK   84  A    between atoms: _191  and  _192
REMARK   85  A    between atoms: _194  and  _196
REMARK   86  A    between atoms: _196  and  _197
REMARK   87  A    between atoms: _196  and  _199
REMARK   88  A    between atoms: _199  and  _200
REMARK   89  A    between atoms: _210  and  _212
REMARK   90  A    between atoms: _212  and  _213
REMARK   91  A    between atoms: _215  and  _217
REMARK   92  A    between atoms: _217  and  _218
REMARK   93  A    between atoms: _217  and  _220
REMARK   94  A    between atoms: _220  and  _221
REMARK   95  A    between atoms: _223  and  _225
REMARK   96  A    between atoms: _225  and  _226
REMARK   97  A    between atoms: _228  and  _230
REMARK   98  A    between atoms: _230  and  _231
REMARK   99  A    between atoms: _230  and  _233
REMARK  100  A    between atoms: _233  and  _234
REMARK  101  A    between atoms: _235  and  _237
REMARK  102  A    between atoms: _237  and  _238
REMARK  103  A    between atoms: _241  and  _243
REMARK  104  A    between atoms: _243  and  _244
REMARK  105  A    between atoms: _243  and  _246
REMARK  106  A    between atoms: _246  and  _247
REMARK  107  A    between atoms: _247  and  _248
REMARK  108  A    between atoms: _253  and  _255
REMARK  109  A    between atoms: _255  and  _256
REMARK  110  A    between atoms: _255  and  _258
REMARK  111  A    between atoms: _258  and  _259
REMARK  112  A    between atoms: _259  and  _260
REMARK  113  A    between atoms: _260  and  _261
REMARK  114  A    between atoms: _261  and  _262
REMARK  115  A    between atoms: _267  and  _268
REMARK  116  A    between atoms: _273  and  _275
REMARK  117  A    between atoms: _275  and  _276
REMARK  118  A    between atoms: _278  and  _280
REMARK  119  A    between atoms: _280  and  _281
REMARK  120  A    between atoms: _280  and  _283
REMARK  121  A    between atoms: _286  and  _288
REMARK  122  A    between atoms: _288  and  _289
REMARK  123  A    between atoms: _288  and  _291
REMARK  124  A    between atoms: _291  and  _292
REMARK  125  A    between atoms: _297  and  _298
REMARK                            x       y       z     vdW  Elec       q    Type
REMARK                         _______ _______ _______ _____ _____    ______ ____
ROOT
ATOM      1  CB  CYS A   8      34.457  15.305  14.536  0.00  0.00    +0.098 C 
ENDROOT
BRANCH   1   2
ATOM      2  SG  CYS A   8      33.617  14.310  15.820  0.00  0.00    -0.080 S 
BRANCH   2   3
ATOM      3  SG  TRP A   4      34.763  14.736  17.464  0.00  0.00    -0.080 S 
BRANCH   3   4
ATOM      4  CB  TRP A   4      34.091  16.335  17.990  0.00  0.00    +0.098 C 
BRANCH   4   5
ATOM      5  CA  TRP A   4      32.581  16.401  18.237  0.00  0.00    +0.160 C 
BRANCH   5   6
ATOM      6  C   TRP A   4      32.146  15.736  19.540  0.00  0.00    +0.242 C 
ATOM      7  O   TRP A   4      31.519  16.367  20.368  0.00  0.00    -0.273 OA
ATOM      8  N   GLY A   5      32.461  14.461  19.692  0.00  0.00    -0.297 N 
ATOM      9  H   GLY A   5      32.970  13.974  18.927  0.00  0.00    +0.150 HD
BRANCH   8  10
ATOM     10  CA  GLY A   5      32.120  13.718  20.892  0.00  0.00    +0.149 C 
BRANCH  10  11
ATOM     11  C   GLY A   5      32.565  14.475  22.134  0.00  0.00    +0.241 C 
ATOM     12  N   SER A   6      31.658  14.547  23.096  0.00  0.00    -0.295 N 
ATOM     13  H   SER A   6      30.754  14.050  22.965  0.00  0.00    +0.150 HD
ATOM     14  O   GLY A   5      33.668  14.979  22.231  0.00  0.00    -0.273 OA
BRANCH  12  15
ATOM     15  CA  SER A   6      31.867  15.281  24.311  0.00  0.00    +0.176 C 
BRANCH  15  16
ATOM     16  C   SER A   6      31.397  16.720  24.280  0.00  0.00    +0.243 C 
ATOM     17  O   SER A   6      31.264  17.371  25.337  0.00  0.00    -0.273 OA
ATOM     18  N   GLY A   7      31.085  17.282  23.121  0.00  0.00    -0.296 N 
ATOM     19  H   GLY A   7      31.354  16.772  22.256  0.00  0.00    +0.150 HD
BRANCH  18  20
ATOM     20  CA  GLY A   7      30.402  18.545  22.960  0.00  0.00    +0.160 C 
BRANCH  20  21
ATOM     21  C   GLY A   7      28.885  18.407  23.015  0.00  0.00    +0.241 C 
ATOM     22  O   GLY A   7      28.208  19.424  23.191  0.00  0.00    -0.273 OA
ATOM     23  N   CYS A   8      28.378  17.188  22.822  0.00  0.00    -0.295 N 
ATOM     24  H   CYS A   8      29.041  16.403  22.661  0.00  0.00    +0.150 HD
BRANCH  23  25
ATOM     25  CA  CYS A   8      26.974  16.893  22.823  0.00  0.00    +0.178 C 
BRANCH  25  26
ATOM     26  C   CYS A   8      26.242  17.578  23.968  0.00  0.00    +0.243 C 
ATOM     27  O   CYS A   8      26.739  17.574  25.091  0.00  0.00    -0.273 OA
ATOM     28  N   ALA A   9      25.083  18.131  23.653  0.00  0.00    -0.295 N 
ATOM     29  H   ALA A   9      24.763  18.074  22.665  0.00  0.00    +0.150 HD
BRANCH  28  30
ATOM     30  CA  ALA A   9      24.241  18.807  24.604  0.00  0.00    +0.176 C 
BRANCH  30  31
ATOM     31  C   ALA A   9      24.566  20.294  24.784  0.00  0.00    +0.243 C 
ATOM     32  O   ALA A   9      23.761  21.001  25.387  0.00  0.00    -0.273 OA
ATOM     33  N   GLN A  10      25.727  20.722  24.284  0.00  0.00    -0.296 N 
ATOM     34  H   GLN A  10      26.350  20.066  23.772  0.00  0.00    +0.150 HD
BRANCH  33  35
ATOM     35  CA  GLN A  10      26.115  22.116  24.461  0.00  0.00    +0.163 C 
BRANCH  35  36
ATOM     36  C   GLN A  10      25.454  23.038  23.462  0.00  0.00    +0.229 C 
ATOM     37  O   GLN A  10      24.670  22.657  22.589  0.00  0.00    -0.286 OA
ENDBRANCH  35  36
ENDBRANCH  33  35
ENDBRANCH  30  31
ENDBRANCH  28  30
ENDBRANCH  25  26
BRANCH  25  38
ATOM     38  CB  CYS A   8      26.737  15.387  23.001  0.00  0.00    +0.166 C 
BRANCH  38  39
ATOM     39  O   CYS A   8      27.056  14.706  21.844  0.00  0.00    -0.380 OA
ATOM     40  H   CYS A   8      26.897  13.738  21.978  0.00  0.00    +0.211 HD
ENDBRANCH  38  39
ENDBRANCH  25  38
ENDBRANCH  23  25
ENDBRANCH  20  21
BRANCH  20  41
ATOM     41  CB  GLY A   7      30.787  19.176  21.611  0.00  0.00    +0.143 C 
BRANCH  41  42
ATOM     42  CG  GLY A   7      32.237  19.574  21.502  0.00  0.00    +0.367 C 
ATOM     43  OD2 GLY A   7      32.810  20.069  22.504  0.00  0.00    -0.246 OA
ATOM     44  OD1 GLY A   7      32.811  19.434  20.388  0.00  0.00    -0.246 OA
ENDBRANCH  41  42
ENDBRANCH  20  41
ENDBRANCH  18  20
ENDBRANCH  15  16
ENDBRANCH  12  15
ENDBRANCH  10  11
BRANCH  10  45
ATOM     45  CB  GLY A   5      32.748  12.321  20.857  0.00  0.00    +0.039 C 
BRANCH  45  46
ATOM     46  CG  GLY A   5      31.954  11.243  20.129  0.00  0.00    +0.087 C 
BRANCH  46  47
ATOM     47  CD  GLY A   5      31.698  11.370  18.662  0.00  0.00    +0.219 C 
ATOM     48  OE1 GLY A   5      30.679  11.009  18.047  0.00  0.00    -0.275 OA
ATOM     49  NE2 GLY A   5      32.686  11.887  17.967  0.00  0.00    -0.329 N 
ATOM     50 HE21 GLY A   5      33.553  12.200  18.449  0.00  0.00    +0.145 HD
ATOM     51 HE22 GLY A   5      32.601  11.984  16.935  0.00  0.00    +0.145 HD
ENDBRANCH  46  47
ENDBRANCH  45  46
ENDBRANCH  10  45
ENDBRANCH   8  10
ENDBRANCH   5   6
BRANCH   5  53
ATOM     52  C   SER A   3      31.973  18.411  16.997  0.00  0.00    +0.243 C 
ATOM     53  N   TRP A   4      32.164  17.785  18.176  0.00  0.00    -0.296 N 
ATOM     54  H   TRP A   4      32.008  18.309  19.061  0.00  0.00    +0.150 HD
ATOM     55  O   SER A   3      32.059  17.767  15.916  0.00  0.00    -0.273 OA
BRANCH  52  56
ATOM     56  CA  SER A   3      31.621  19.878  17.035  0.00  0.00    +0.178 C 
BRANCH  56  59
ATOM     57  C   VAL A   2      32.986  20.745  15.198  0.00  0.00    +0.241 C 
ATOM     58  O   VAL A   2      33.995  20.843  15.893  0.00  0.00    -0.273 OA
ATOM     59  N   SER A   3      31.769  20.443  15.697  0.00  0.00    -0.295 N 
ATOM     60  H   SER A   3      30.922  20.616  15.119  0.00  0.00    +0.150 HD
BRANCH  57  61
ATOM     61  CA  VAL A   2      33.016  20.950  13.707  0.00  0.00    +0.160 C 
BRANCH  61  63
ATOM     62  C   ILE A   1      34.472  22.074  12.088  0.00  0.00    +0.238 C 
ATOM     63  N   VAL A   2      34.280  21.576  13.300  0.00  0.00    -0.297 N 
ATOM     64  H   VAL A   2      35.055  21.631  13.991  0.00  0.00    +0.150 HD
ATOM     65  O   ILE A   1      33.568  22.074  11.233  0.00  0.00    -0.274 OA
BRANCH  62  66
ATOM     66  CA  ILE A   1      35.828  22.585  11.711  0.00  0.00    +0.145 C 
BRANCH  66  67
ATOM     67  N   ILE A   1      36.356  21.764  10.621  0.00  0.00    -0.238 NA
ATOM     68  H   ILE A   1      35.701  21.459   9.873  0.00  0.00    +0.142 HD
ENDBRANCH  66  67
BRANCH  66  69
ATOM     69  CB  ILE A   1      35.736  24.038  11.295  0.00  0.00    +0.026 C 
BRANCH  69  70
ATOM     70  CG  ILE A   1      37.071  24.702  11.000  0.00  0.00    -0.000 C 
BRANCH  70  71
ATOM     71  CD  ILE A   1      36.887  26.142  10.580  0.00  0.00    -0.024 C 
BRANCH  71  72
ATOM     72  CE  ILE A   1      38.140  26.979  10.492  0.00  0.00    -0.086 C 
BRANCH  72  73
ATOM     73  NZ  ILE A   1      37.737  28.419  10.521  0.00  0.00    +0.380 N 
ATOM     74  HZ1 ILE A   1      37.233  28.619  11.408  0.00  0.00    -0.089 HD
ATOM     75  HZ2 ILE A   1      38.586  29.017  10.461  0.00  0.00    -0.089 HD
ATOM     76  HZ3 ILE A   1      37.113  28.619   9.713  0.00  0.00    -0.089 HD
ENDBRANCH  72  73
ENDBRANCH  71  72
ENDBRANCH  70  71
ENDBRANCH  69  70
ENDBRANCH  66  69
ENDBRANCH  62  66
ENDBRANCH  61  63
BRANCH  61  77
ATOM     77  CB  VAL A   2      32.905  19.613  12.979  0.00  0.00    +0.143 C 
BRANCH  77  78
ATOM     78  CG  VAL A   2      31.544  18.924  12.878  0.00  0.00    +0.367 C 
ATOM     79  OD2 VAL A   2      30.518  19.527  13.305  0.00  0.00    -0.246 OA
ATOM     80  OD1 VAL A   2      31.508  17.807  12.335  0.00  0.00    -0.246 OA
ENDBRANCH  77  78
ENDBRANCH  61  77
ENDBRANCH  57  61
ENDBRANCH  56  59
BRANCH  56  81
ATOM     81  CB  SER A   3      30.218  20.142  17.554  0.00  0.00    +0.166 C 
BRANCH  81  82
ATOM     82  OG  SER A   3      29.283  19.530  16.695  0.00  0.00    -0.380 OA
ATOM     83  H   SER A   3      29.377  19.907  15.784  0.00  0.00    +0.211 HD
ENDBRANCH  81  82
ENDBRANCH  56  81
ENDBRANCH  52  56
ENDBRANCH   5  53
ENDBRANCH   4   5
ENDBRANCH   3   4
ENDBRANCH   2   3
ENDBRANCH   1   2
BRANCH   1  84
ATOM     84  CA  CYS A   8      33.704  15.118  13.203  0.00  0.00    +0.160 C 
BRANCH  84  85
ATOM     85  C   CYS A   8      34.555  15.741  12.122  0.00  0.00    +0.242 C 
ATOM     86  O   CYS A   8      35.638  15.203  11.840  0.00  0.00    -0.273 OA
ATOM     87  N   ALA A   9      34.119  16.843  11.559  0.00  0.00    -0.297 N 
ATOM     88  H   ALA A   9      33.161  17.179  11.786  0.00  0.00    +0.150 HD
BRANCH  87  89
ATOM     89  CA  ALA A   9      34.933  17.610  10.627  0.00  0.00    +0.149 C 
ATOM     90  CB  ALA A   9      36.185  18.175  11.297  0.00  0.00    +0.031 C 
BRANCH  89  91
ATOM     91  C   ALA A   9      35.247  16.859   9.361  0.00  0.00    +0.241 C 
ATOM     92  N   GLN A  10      34.417  15.889   9.002  0.00  0.00    -0.298 N 
ATOM     93  H   GLN A  10      33.639  15.617   9.637  0.00  0.00    +0.150 HD
ATOM     94  O   ALA A   9      36.219  17.224   8.685  0.00  0.00    -0.273 OA
BRANCH  92  95
ATOM     95  CA  GLN A  10      34.581  15.202   7.734  0.00  0.00    +0.137 C 
BRANCH  95  96
ATOM     96  C   GLN A  10      33.923  15.978   6.601  0.00  0.00    +0.227 C 
ATOM     97  O   GLN A  10      32.931  16.667   6.781  0.00  0.00    -0.286 OA
ENDBRANCH  95  96
BRANCH  95  98
ATOM     98  CB  GLN A  10      33.986  13.792   7.791  0.00  0.00    +0.037 C 
BRANCH  98  99
ATOM     99  CG  GLN A  10      34.545  12.944   8.919  0.00  0.00    +0.087 C 
BRANCH  99 100
ATOM    100  CD  GLN A  10      35.791  12.196   8.506  0.00  0.00    +0.219 C 
ATOM    101  OE1 GLN A  10      36.816  12.864   8.440  0.00  0.00    -0.275 OA
ATOM    102  NE2 GLN A  10      35.715  10.885   8.266  0.00  0.00    -0.329 N 
ATOM    103 HE21 GLN A  10      34.802  10.394   8.345  0.00  0.00    +0.145 HD
ATOM    104 HE22 GLN A  10      36.569  10.355   8.000  0.00  0.00    +0.145 HD
ENDBRANCH  99 100
ENDBRANCH  98  99
ENDBRANCH  95  98
ENDBRANCH  92  95
ENDBRANCH  89  91
ENDBRANCH  87  89
ENDBRANCH  84  85
BRANCH  84 105
ATOM    105  N   CYS A   8      33.434  13.723  12.892  0.00  0.00    -0.296 N 
ATOM    106  C   GLY A   7      32.219  13.199  13.008  0.00  0.00    +0.243 C 
ATOM    107  O   GLY A   7      31.208  13.836  13.344  0.00  0.00    -0.273 OA
ATOM    108  H   CYS A   8      34.216  13.118  12.569  0.00  0.00    +0.150 HD
BRANCH 106 109
ATOM    109  CA  GLY A   7      32.146  11.713  12.680  0.00  0.00    +0.176 C 
BRANCH 109 110
ATOM    110  N   GLY A   7      30.788  11.326  12.364  0.00  0.00    -0.295 N 
ATOM    111  H   GLY A   7      30.247  10.717  13.010  0.00  0.00    +0.150 HD
ATOM    112  C   SER A   6      30.250  11.759  11.243  0.00  0.00    +0.243 C 
ATOM    113  O   SER A   6      30.888  12.410  10.419  0.00  0.00    -0.273 OA
BRANCH 112 114
ATOM    114  CA  SER A   6      28.797  11.446  11.013  0.00  0.00    +0.178 C 
BRANCH 114 115
ATOM    115  N   SER A   6      28.048  12.654  11.377  0.00  0.00    -0.295 N 
ATOM    116  C   GLY A   5      27.092  12.660  12.236  0.00  0.00    +0.243 C 
ATOM    117  O   GLY A   5      26.684  11.602  12.749  0.00  0.00    -0.273 OA
ATOM    118  H   SER A   6      28.304  13.551  10.917  0.00  0.00    +0.150 HD
BRANCH 116 119
ATOM    119  CA  GLY A   5      26.493  13.976  12.692  0.00  0.00    +0.176 C 
BRANCH 119 120
ATOM    120  N   GLY A   5      25.928  13.827  13.990  0.00  0.00    -0.295 N 
ATOM    121  C   TRP A   4      25.403  14.814  14.697  0.00  0.00    +0.241 C 
ATOM    122  O   TRP A   4      25.492  15.962  14.304  0.00  0.00    -0.273 OA
ATOM    123  H   GLY A   5      25.928  12.876  14.412  0.00  0.00    +0.150 HD
BRANCH 121 124
ATOM    124  CA  TRP A   4      24.709  14.400  15.983  0.00  0.00    +0.153 C 
BRANCH 124 125
ATOM    125  N   TRP A   4      24.164  15.582  16.651  0.00  0.00    -0.297 N 
ATOM    126  C   SER A   3      23.835  15.496  17.935  0.00  0.00    +0.243 C 
ATOM    127  O   SER A   3      24.077  14.498  18.626  0.00  0.00    -0.273 OA
ATOM    128  H   TRP A   4      24.037  16.473  16.130  0.00  0.00    +0.150 HD
BRANCH 126 129
ATOM    129  CA  SER A   3      23.145  16.663  18.634  0.00  0.00    +0.178 C 
BRANCH 129 130
ATOM    130  N   SER A   3      23.964  17.874  18.688  0.00  0.00    -0.295 N 
ATOM    131  C   VAL A   2      24.285  18.477  19.840  0.00  0.00    +0.241 C 
ATOM    132  O   VAL A   2      24.086  17.917  20.918  0.00  0.00    -0.273 OA
ATOM    133  H   SER A   3      24.311  18.283  17.797  0.00  0.00    +0.150 HD
BRANCH 131 134
ATOM    134  CA  VAL A   2      24.949  19.828  19.743  0.00  0.00    +0.148 C 
BRANCH 134 135
ATOM    135  N   VAL A   2      24.071  20.775  20.437  0.00  0.00    -0.297 N 
ATOM    136  H   VAL A   2      24.433  21.284  21.268  0.00  0.00    +0.150 HD
ATOM    137  C   ILE A   1      22.813  21.003  20.029  0.00  0.00    +0.238 C 
ATOM    138  O   ILE A   1      22.347  20.416  19.055  0.00  0.00    -0.274 OA
BRANCH 137 139
ATOM    139  CA  ILE A   1      21.956  21.959  20.840  0.00  0.00    +0.145 C 
BRANCH 139 140
ATOM    140  N   ILE A   1      21.317  22.881  19.877  0.00  0.00    -0.238 NA
ATOM    141  H   ILE A   1      20.764  22.470  19.098  0.00  0.00    +0.142 HD
ENDBRANCH 139 140
BRANCH 139 142
ATOM    142  CB  ILE A   1      20.941  21.189  21.639  0.00  0.00    +0.025 C 
ATOM    143  CG2 ILE A   1      21.592  20.223  22.588  0.00  0.00    +0.002 C 
BRANCH 142 144
ATOM    144  CG1 ILE A   1      20.002  22.138  22.398  0.00  0.00    +0.002 C 
ATOM    145  CD1 ILE A   1      18.756  21.478  22.933  0.00  0.00    +0.000 C 
ENDBRANCH 142 144
ENDBRANCH 139 142
ENDBRANCH 137 139
ENDBRANCH 134 135
BRANCH 134 146
ATOM    146  CB  VAL A   2      26.341  19.795  20.393  0.00  0.00    +0.027 C 
ATOM    147  CG2 VAL A   2      27.009  21.182  20.389  0.00  0.00    +0.002 C 
ATOM    148  CG1 VAL A   2      27.208  18.782  19.655  0.00  0.00    +0.002 C 
ENDBRANCH 134 146
ENDBRANCH 131 134
ENDBRANCH 129 130
BRANCH 129 149
ATOM    149  CB  SER A   3      21.779  16.974  18.015  0.00  0.00    +0.166 C 
BRANCH 149 150
ATOM    150  OG  SER A   3      20.930  15.816  17.980  0.00  0.00    -0.380 OA
ATOM    151  H   SER A   3      20.785  15.486  18.902  0.00  0.00    +0.211 HD
ENDBRANCH 149 150
ENDBRANCH 129 149
ENDBRANCH 126 129
ENDBRANCH 124 125
BRANCH 124 152
ATOM    152  CB  TRP A   4      23.625  13.369  15.716  0.00  0.00    +0.057 C 
BRANCH 152 153
ATOM    153  CG  TRP A   4      22.514  13.702  14.806  0.00  0.00    -0.002 A 
ATOM    154  CD1 TRP A   4      21.372  14.434  15.103  0.00  0.00    +0.068 A 
ATOM    155  NE1 TRP A   4      20.579  14.523  14.000  0.00  0.00    -0.352 N 
ATOM    156  HE1 TRP A   4      19.663  15.013  13.951  0.00  0.00    +0.166 HD
ATOM    157  CE2 TRP A   4      21.180  13.866  12.973  0.00  0.00    +0.056 A 
ATOM    158  CZ2 TRP A   4      20.720  13.698  11.657  0.00  0.00    +0.017 A 
ATOM    159  CH2 TRP A   4      21.542  12.983  10.814  0.00  0.00    +0.001 A 
ATOM    160  CZ3 TRP A   4      22.741  12.457  11.241  0.00  0.00    +0.000 A 
ATOM    161  CE3 TRP A   4      23.195  12.610  12.532  0.00  0.00    +0.001 A 
ATOM    162  CD2 TRP A   4      22.391  13.330  13.421  0.00  0.00    +0.013 A 
ENDBRANCH 152 153
ENDBRANCH 124 152
ENDBRANCH 121 124
ENDBRANCH 119 120
ENDBRANCH 116 119
ENDBRANCH 114 115
BRANCH 114 163
ATOM    163  CB  SER A   6      28.509  11.051   9.573  0.00  0.00    +0.166 C 
BRANCH 163 164
ATOM    164  OG  SER A   6      29.258   9.892   9.235  0.00  0.00    -0.380 OA
ATOM    165  H   SER A   6      30.224  10.084   9.336  0.00  0.00    +0.211 HD
ENDBRANCH 163 164
ENDBRANCH 114 163
ENDBRANCH 112 114
ENDBRANCH 109 110
ENDBRANCH 106 109
ENDBRANCH  84 105
ENDBRANCH   1  84
TORSDOF 73
REMARK  Name = ../refined-set-2016/1utn/1utn_pocket.pdb
REMARK  125 active torsions:
REMARK  status: ('A' for Active; 'I' for Inactive)
REMARK    1  A    between atoms: _1  and  _5
REMARK    2  A    between atoms: _5  and  _6
REMARK    3  A    between atoms: _5  and  _8
REMARK    4  A    between atoms: _8  and  _9
REMARK    5  A    between atoms: _12  and  _14
REMARK    6  A    between atoms: _14  and  _15
REMARK    7  A    between atoms: _14  and  _17
REMARK    8  A    between atoms: _20  and  _22
REMARK    9  A    between atoms: _22  and  _23
REMARK   10  A    between atoms: _22  and  _25
REMARK   11  A    between atoms: _25  and  _26
REMARK   12  A    between atoms: _31  and  _33
REMARK   13  A    between atoms: _33  and  _34
REMARK   14  A    between atoms: _33  and  _36
REMARK   15  A    between atoms: _36  and  _37
REMARK   16  A    between atoms: _40  and  _42
REMARK   17  A    between atoms: _42  and  _43
REMARK   18  A    between atoms: _42  and  _45
REMARK   19  A    between atoms: _45  and  _46
REMARK   20  A    between atoms: _49  and  _51
REMARK   21  A    between atoms: _51  and  _52
REMARK   22  A    between atoms: _51  and  _54
REMARK   23  A    between atoms: _54  and  _55
REMARK   24  A    between atoms: _60  and  _62
REMARK   25  A    between atoms: _62  and  _63
REMARK   26  A    between atoms: _62  and  _65
REMARK   27  A    between atoms: _65  and  _66
REMARK   28  A    between atoms: _68  and  _70
REMARK   29  A    between atoms: _70  and  _71
REMARK   30  A    between atoms: _70  and  _73
REMARK   31  A    between atoms: _73  and  _74
REMARK   32  A    between atoms: _79  and  _80
REMARK   33  A    between atoms: _82  and  _84
REMARK   34  A    between atoms: _84  and  _85
REMARK   35  A    between atoms: _88  and  _90
REMARK   36  A    between atoms: _90  and  _91
REMARK   37  A    between atoms: _90  and  _93
REMARK   38  A    between atoms: _93  and  _94
REMARK   39  A    between atoms: _94  and  _95
REMARK   40  A    between atoms: _95  and  _96
REMARK   41  A    between atoms: _96  and  _97
REMARK   42  A    between atoms: _101  and  _103
REMARK   43  A    between atoms: _103  and  _104
REMARK   44  A    between atoms: _103  and  _106
REMARK   45  A    between atoms: _106  and  _107
REMARK   46  A    between atoms: _110  and  _112
REMARK   47  A    between atoms: _112  and  _113
REMARK   48  A    between atoms: _112  and  _115
REMARK   49  A    between atoms: _115  and  _116
REMARK   50  A    between atoms: _118  and  _120
REMARK   51  A    between atoms: _120  and  _121
REMARK   52  A    between atoms: _120  and  _123
REMARK   53  A    between atoms: _123  and  _124
REMARK   54  A    between atoms: _124  and  _234
REMARK   55  A    between atoms: _125  and  _127
REMARK   56  A    between atoms: _127  and  _128
REMARK   57  A    between atoms: _127  and  _130
REMARK   58  A    between atoms: _130  and  _131
REMARK   59  A    between atoms: _131  and  _132
REMARK   60  A    between atoms: _137  and  _139
REMARK   61  A    between atoms: _139  and  _140
REMARK   62  A    between atoms: _142  and  _144
REMARK   63  A    between atoms: _144  and  _145
REMARK   64  A    between atoms: _144  and  _147
REMARK   65  A    between atoms: _147  and  _148
REMARK   66  A    between atoms: _151  and  _153
REMARK   67  A    between atoms: _153  and  _154
REMARK   68  A    between atoms: _153  and  _156
REMARK   69  A    between atoms: _156  and  _157
REMARK   70  A    between atoms: _159  and  _161
REMARK   71  A    between atoms: _161  and  _162
REMARK   72  A    between atoms: _164  and  _166
REMARK   73  A    between atoms: _166  and  _167
REMARK   74  A    between atoms: _169  and  _171
REMARK   75  A    between atoms: _171  and  _172
REMARK   76  A    between atoms: _171  and  _174
REMARK   77  A    between atoms: _174  and  _175
REMARK   78  A    between atoms: _178  and  _180
REMARK   79  A    between atoms: _180  and  _181
REMARK   80  A    between atoms: _180  and  _183
REMARK   81  A    between atoms: _186  and  _188
REMARK   82  A    between atoms: _188  and  _189
REMARK   83  A    between atoms: _188  and  _191
REMARK   84  A    between atoms: _191  and  _192
REMARK   85  A    between atoms: _194  and  _196
REMARK   86  A    between atoms: _196  and  _197
REMARK   87  A    between atoms: _196  and  _199
REMARK   88  A    between atoms: _199  and  _200
REMARK   89  A    between atoms: _210  and  _212
REMARK   90  A    between atoms: _212  and  _213
REMARK   91  A    between atoms: _215  and  _217
REMARK   92  A    between atoms: _217  and  _218
REMARK   93  A    between atoms: _217  and  _220
REMARK   94  A    between atoms: _220  and  _221
REMARK   95  A    between atoms: _223  and  _225
REMARK   96  A    between atoms: _225  and  _226
REMARK   97  A    between atoms: _228  and  _230
REMARK   98  A    between atoms: _230  and  _231
REMARK   99  A    between atoms: _230  and  _233
REMARK  100  A    between atoms: _233  and  _234
REMARK  101  A    between atoms: _235  and  _237
REMARK  102  A    between atoms: _237  and  _238
REMARK  103  A    between atoms: _241  and  _243
REMARK  104  A    between atoms: _243  and  _244
REMARK  105  A    between atoms: _243  and  _246
REMARK  106  A    between atoms: _246  and  _247
REMARK  107  A    between atoms: _247  and  _248
REMARK  108  A    between atoms: _253  and  _255
REMARK  109  A    between atoms: _255  and  _256
REMARK  110  A    between atoms: _255  and  _258
REMARK  111  A    between atoms: _258  and  _259
REMARK  112  A    between atoms: _259  and  _260
REMARK  113  A    between atoms: _260  and  _261
REMARK  114  A    between atoms: _261  and  _262
REMARK  115  A    between atoms: _267  and  _268
REMARK  116  A    between atoms: _273  and  _275
REMARK  117  A    between atoms: _275  and  _276
REMARK  118  A    between atoms: _278  and  _280
REMARK  119  A    between atoms: _280  and  _281
REMARK  120  A    between atoms: _280  and  _283
REMARK  121  A    between atoms: _286  and  _288
REMARK  122  A    between atoms: _288  and  _289
REMARK  123  A    between atoms: _288  and  _291
REMARK  124  A    between atoms: _291  and  _292
REMARK  125  A    between atoms: _297  and  _298
REMARK                            x       y       z     vdW  Elec       q    Type
REMARK                         _______ _______ _______ _____ _____    ______ ____
ROOT
ATOM      1  C   GLY A   3      25.660  19.221  12.304  0.00  0.00    +0.243 C 
ATOM      2  N   VAL A   4      24.899  18.381  13.045  0.00  0.00    -0.297 N 
ATOM      3  H   VAL A   4      25.374  17.635  13.591  0.00  0.00    +0.150 HD
ATOM      4  O   GLY A   3      25.245  20.096  11.557  0.00  0.00    -0.273 OA
ENDROOT
BRANCH   2   5
ATOM      5  CA  VAL A   4      23.439  18.473  13.114  0.00  0.00    +0.149 C 
BRANCH   5   6
ATOM      6  C   VAL A   4      23.041  18.870  14.537  0.00  0.00    +0.241 C 
ATOM      7  O   VAL A   4      23.578  18.300  15.493  0.00  0.00    -0.273 OA
ATOM      8  N   TYR A   5      22.141  19.818  14.629  0.00  0.00    -0.298 N 
ATOM      9  H   TYR A   5      21.622  20.076  13.765  0.00  0.00    +0.150 HD
BRANCH   8  10
ATOM     10  CA  TYR A   5      21.816  20.533  15.847  0.00  0.00    +0.141 C 
BRANCH  10  11
ATOM     11  C   TYR A   5      20.332  20.524  16.078  0.00  0.00    +0.227 C 
ATOM     12  O   TYR A   5      19.522  20.733  15.137  0.00  0.00    -0.286 OA
ENDBRANCH  10  11
BRANCH  10  13
ATOM     13  CB  TYR A   5      22.351  22.002  15.795  0.00  0.00    +0.054 C 
BRANCH  13  14
ATOM     14  CG  TYR A   5      23.856  21.933  15.618  0.00  0.00    -0.020 A 
ATOM     15  CD2 TYR A   5      24.664  21.719  16.726  0.00  0.00    -0.001 A 
ATOM     16  CE2 TYR A   5      26.010  21.625  16.610  0.00  0.00    +0.036 A 
ATOM     17  CZ  TYR A   5      26.648  21.714  15.375  0.00  0.00    +0.134 A 
ATOM     18  CE1 TYR A   5      25.859  21.909  14.255  0.00  0.00    +0.036 A 
ATOM     19  CD1 TYR A   5      24.501  22.028  14.418  0.00  0.00    -0.001 A 
BRANCH  17  20
ATOM     20  OH  TYR A   5      28.019  21.578  15.329  0.00  0.00    -0.506 OA
ATOM     21  HH  TYR A   5      28.417  22.394  14.935  0.00  0.00    +0.292 HD
ENDBRANCH  17  20
ENDBRANCH  13  14
ENDBRANCH  10  13
ENDBRANCH   8  10
ENDBRANCH   5   6
BRANCH   5  22
ATOM     22  CB  VAL A   4      22.742  17.191  12.653  0.00  0.00    +0.027 C 
ATOM     23  CG2 VAL A   4      21.252  17.459  12.511  0.00  0.00    +0.002 C 
ATOM     24  CG1 VAL A   4      23.338  16.696  11.340  0.00  0.00    +0.002 C 
ENDBRANCH   5  22
ENDBRANCH   2   5
BRANCH   1  25
ATOM     25  CA  GLY A   3      27.150  18.974  12.428  0.00  0.00    +0.176 C 
BRANCH  25  27
ATOM     26  C   PRO A   2      27.745  18.455  10.195  0.00  0.00    +0.241 C 
ATOM     27  N   GLY A   3      27.900  19.241  11.239  0.00  0.00    -0.295 N 
ATOM     28  H   GLY A   3      28.558  20.045  11.200  0.00  0.00    +0.150 HD
ATOM     29  O   PRO A   2      27.051  17.460  10.238  0.00  0.00    -0.273 OA
BRANCH  26  33
ATOM     30  C   LYS A   1      29.185  16.779   8.050  0.00  0.00    +0.241 C 
ATOM     31  O   LYS A   1      29.924  16.624   9.032  0.00  0.00    -0.273 OA
ATOM     32  N   PRO A   2      28.433  17.865   7.923  0.00  0.00    -0.272 N 
ATOM     33  CA  PRO A   2      28.453  18.911   8.928  0.00  0.00    +0.152 C 
ATOM     34  CB  PRO A   2      27.701  20.052   8.236  0.00  0.00    +0.031 C 
ATOM     35  CG  PRO A   2      26.713  19.325   7.359  0.00  0.00    +0.024 C 
ATOM     36  CD  PRO A   2      27.510  18.136   6.808  0.00  0.00    +0.094 C 
BRANCH  30  37
ATOM     37  CA  LYS A   1      29.147  15.750   6.934  0.00  0.00    +0.145 C 
BRANCH  37  38
ATOM     38  N   LYS A   1      29.825  16.322   5.758  0.00  0.00    -0.238 NA
ATOM     39  H   LYS A   1      30.712  16.848   5.891  0.00  0.00    +0.142 HD
ENDBRANCH  37  38
BRANCH  37  40
ATOM     40  CB  LYS A   1      29.763  14.416   7.327  0.00  0.00    +0.026 C 
BRANCH  40  41
ATOM     41  CG  LYS A   1      29.479  13.298   6.326  0.00  0.00    -0.000 C 
BRANCH  41  42
ATOM     42  CD  LYS A   1      27.981  12.921   6.272  0.00  0.00    -0.024 C 
BRANCH  42  43
ATOM     43  CE  LYS A   1      27.634  11.879   5.205  0.00  0.00    -0.086 C 
BRANCH  43  44
ATOM     44  NZ  LYS A   1      26.303  11.201   5.281  0.00  0.00    +0.380 N 
ATOM     45  HZ1 LYS A   1      26.225  10.694   6.186  0.00  0.00    -0.089 HD
ATOM     46  HZ2 LYS A   1      25.548  11.913   5.215  0.00  0.00    -0.089 HD
ATOM     47  HZ3 LYS A   1      26.214  10.526   4.495  0.00  0.00    -0.089 HD
ENDBRANCH  43  44
ENDBRANCH  42  43
ENDBRANCH  41  42
ENDBRANCH  40  41
ENDBRANCH  37  40
ENDBRANCH  30  37
ENDBRANCH  26  33
ENDBRANCH  25  27
ENDBRANCH   1  25
TORSDOF 18
REMARK  Name = ../refined-set-2016/1utn/1utn_pocket.pdb
REMARK  125 active torsions:
REMARK  status: ('A' for Active; 'I' for Inactive)
REMARK    1  A    between atoms: _1  and  _5
REMARK    2  A    between atoms: _5  and  _6
REMARK    3  A    between atoms: _5  and  _8
REMARK    4  A    between atoms: _8  and  _9
REMARK    5  A    between atoms: _12  and  _14
REMARK    6  A    between atoms: _14  and  _15
REMARK    7  A    between atoms: _14  and  _17
REMARK    8  A    between atoms: _20  and  _22
REMARK    9  A    between atoms: _22  and  _23
REMARK   10  A    between atoms: _22  and  _25
REMARK   11  A    between atoms: _25  and  _26
REMARK   12  A    between atoms: _31  and  _33
REMARK   13  A    between atoms: _33  and  _34
REMARK   14  A    between atoms: _33  and  _36
REMARK   15  A    between atoms: _36  and  _37
REMARK   16  A    between atoms: _40  and  _42
REMARK   17  A    between atoms: _42  and  _43
REMARK   18  A    between atoms: _42  and  _45
REMARK   19  A    between atoms: _45  and  _46
REMARK   20  A    between atoms: _49  and  _51
REMARK   21  A    between atoms: _51  and  _52
REMARK   22  A    between atoms: _51  and  _54
REMARK   23  A    between atoms: _54  and  _55
REMARK   24  A    between atoms: _60  and  _62
REMARK   25  A    between atoms: _62  and  _63
REMARK   26  A    between atoms: _62  and  _65
REMARK   27  A    between atoms: _65  and  _66
REMARK   28  A    between atoms: _68  and  _70
REMARK   29  A    between atoms: _70  and  _71
REMARK   30  A    between atoms: _70  and  _73
REMARK   31  A    between atoms: _73  and  _74
REMARK   32  A    between atoms: _79  and  _80
REMARK   33  A    between atoms: _82  and  _84
REMARK   34  A    between atoms: _84  and  _85
REMARK   35  A    between atoms: _88  and  _90
REMARK   36  A    between atoms: _90  and  _91
REMARK   37  A    between atoms: _90  and  _93
REMARK   38  A    between atoms: _93  and  _94
REMARK   39  A    between atoms: _94  and  _95
REMARK   40  A    between atoms: _95  and  _96
REMARK   41  A    between atoms: _96  and  _97
REMARK   42  A    between atoms: _101  and  _103
REMARK   43  A    between atoms: _103  and  _104
REMARK   44  A    between atoms: _103  and  _106
REMARK   45  A    between atoms: _106  and  _107
REMARK   46  A    between atoms: _110  and  _112
REMARK   47  A    between atoms: _112  and  _113
REMARK   48  A    between atoms: _112  and  _115
REMARK   49  A    between atoms: _115  and  _116
REMARK   50  A    between atoms: _118  and  _120
REMARK   51  A    between atoms: _120  and  _121
REMARK   52  A    between atoms: _120  and  _123
REMARK   53  A    between atoms: _123  and  _124
REMARK   54  A    between atoms: _124  and  _234
REMARK   55  A    between atoms: _125  and  _127
REMARK   56  A    between atoms: _127  and  _128
REMARK   57  A    between atoms: _127  and  _130
REMARK   58  A    between atoms: _130  and  _131
REMARK   59  A    between atoms: _131  and  _132
REMARK   60  A    between atoms: _137  and  _139
REMARK   61  A    between atoms: _139  and  _140
REMARK   62  A    between atoms: _142  and  _144
REMARK   63  A    between atoms: _144  and  _145
REMARK   64  A    between atoms: _144  and  _147
REMARK   65  A    between atoms: _147  and  _148
REMARK   66  A    between atoms: _151  and  _153
REMARK   67  A    between atoms: _153  and  _154
REMARK   68  A    between atoms: _153  and  _156
REMARK   69  A    between atoms: _156  and  _157
REMARK   70  A    between atoms: _159  and  _161
REMARK   71  A    between atoms: _161  and  _162
REMARK   72  A    between atoms: _164  and  _166
REMARK   73  A    between atoms: _166  and  _167
REMARK   74  A    between atoms: _169  and  _171
REMARK   75  A    between atoms: _171  and  _172
REMARK   76  A    between atoms: _171  and  _174
REMARK   77  A    between atoms: _174  and  _175
REMARK   78  A    between atoms: _178  and  _180
REMARK   79  A    between atoms: _180  and  _181
REMARK   80  A    between atoms: _180  and  _183
REMARK   81  A    between atoms: _186  and  _188
REMARK   82  A    between atoms: _188  and  _189
REMARK   83  A    between atoms: _188  and  _191
REMARK   84  A    between atoms: _191  and  _192
REMARK   85  A    between atoms: _194  and  _196
REMARK   86  A    between atoms: _196  and  _197
REMARK   87  A    between atoms: _196  and  _199
REMARK   88  A    between atoms: _199  and  _200
REMARK   89  A    between atoms: _210  and  _212
REMARK   90  A    between atoms: _212  and  _213
REMARK   91  A    between atoms: _215  and  _217
REMARK   92  A    between atoms: _217  and  _218
REMARK   93  A    between atoms: _217  and  _220
REMARK   94  A    between atoms: _220  and  _221
REMARK   95  A    between atoms: _223  and  _225
REMARK   96  A    between atoms: _225  and  _226
REMARK   97  A    between atoms: _228  and  _230
REMARK   98  A    between atoms: _230  and  _231
REMARK   99  A    between atoms: _230  and  _233
REMARK  100  A    between atoms: _233  and  _234
REMARK  101  A    between atoms: _235  and  _237
REMARK  102  A    between atoms: _237  and  _238
REMARK  103  A    between atoms: _241  and  _243
REMARK  104  A    between atoms: _243  and  _244
REMARK  105  A    between atoms: _243  and  _246
REMARK  106  A    between atoms: _246  and  _247
REMARK  107  A    between atoms: _247  and  _248
REMARK  108  A    between atoms: _253  and  _255
REMARK  109  A    between atoms: _255  and  _256
REMARK  110  A    between atoms: _255  and  _258
REMARK  111  A    between atoms: _258  and  _259
REMARK  112  A    between atoms: _259  and  _260
REMARK  113  A    between atoms: _260  and  _261
REMARK  114  A    between atoms: _261  and  _262
REMARK  115  A    between atoms: _267  and  _268
REMARK  116  A    between atoms: _273  and  _275
REMARK  117  A    between atoms: _275  and  _276
REMARK  118  A    between atoms: _278  and  _280
REMARK  119  A    between atoms: _280  and  _281
REMARK  120  A    between atoms: _280  and  _283
REMARK  121  A    between atoms: _286  and  _288
REMARK  122  A    between atoms: _288  and  _289
REMARK  123  A    between atoms: _288  and  _291
REMARK  124  A    between atoms: _291  and  _292
REMARK  125  A    between atoms: _297  and  _298
REMARK                            x       y       z     vdW  Elec       q    Type
REMARK                         _______ _______ _______ _____ _____    ______ ____
ROOT
ATOM      1  O   HOH     1      23.397   9.415  20.328  0.00  0.00    +0.000 OA
ENDROOT
TORSDOF 0
REMARK  Name = ../refined-set-2016/1utn/1utn_pocket.pdb
REMARK  125 active torsions:
REMARK  status: ('A' for Active; 'I' for Inactive)
REMARK    1  A    between atoms: _1  and  _5
REMARK    2  A    between atoms: _5  and  _6
REMARK    3  A    between atoms: _5  and  _8
REMARK    4  A    between atoms: _8  and  _9
REMARK    5  A    between atoms: _12  and  _14
REMARK    6  A    between atoms: _14  and  _15
REMARK    7  A    between atoms: _14  and  _17
REMARK    8  A    between atoms: _20  and  _22
REMARK    9  A    between atoms: _22  and  _23
REMARK   10  A    between atoms: _22  and  _25
REMARK   11  A    between atoms: _25  and  _26
REMARK   12  A    between atoms: _31  and  _33
REMARK   13  A    between atoms: _33  and  _34
REMARK   14  A    between atoms: _33  and  _36
REMARK   15  A    between atoms: _36  and  _37
REMARK   16  A    between atoms: _40  and  _42
REMARK   17  A    between atoms: _42  and  _43
REMARK   18  A    between atoms: _42  and  _45
REMARK   19  A    between atoms: _45  and  _46
REMARK   20  A    between atoms: _49  and  _51
REMARK   21  A    between atoms: _51  and  _52
REMARK   22  A    between atoms: _51  and  _54
REMARK   23  A    between atoms: _54  and  _55
REMARK   24  A    between atoms: _60  and  _62
REMARK   25  A    between atoms: _62  and  _63
REMARK   26  A    between atoms: _62  and  _65
REMARK   27  A    between atoms: _65  and  _66
REMARK   28  A    between atoms: _68  and  _70
REMARK   29  A    between atoms: _70  and  _71
REMARK   30  A    between atoms: _70  and  _73
REMARK   31  A    between atoms: _73  and  _74
REMARK   32  A    between atoms: _79  and  _80
REMARK   33  A    between atoms: _82  and  _84
REMARK   34  A    between atoms: _84  and  _85
REMARK   35  A    between atoms: _88  and  _90
REMARK   36  A    between atoms: _90  and  _91
REMARK   37  A    between atoms: _90  and  _93
REMARK   38  A    between atoms: _93  and  _94
REMARK   39  A    between atoms: _94  and  _95
REMARK   40  A    between atoms: _95  and  _96
REMARK   41  A    between atoms: _96  and  _97
REMARK   42  A    between atoms: _101  and  _103
REMARK   43  A    between atoms: _103  and  _104
REMARK   44  A    between atoms: _103  and  _106
REMARK   45  A    between atoms: _106  and  _107
REMARK   46  A    between atoms: _110  and  _112
REMARK   47  A    between atoms: _112  and  _113
REMARK   48  A    between atoms: _112  and  _115
REMARK   49  A    between atoms: _115  and  _116
REMARK   50  A    between atoms: _118  and  _120
REMARK   51  A    between atoms: _120  and  _121
REMARK   52  A    between atoms: _120  and  _123
REMARK   53  A    between atoms: _123  and  _124
REMARK   54  A    between atoms: _124  and  _234
REMARK   55  A    between atoms: _125  and  _127
REMARK   56  A    between atoms: _127  and  _128
REMARK   57  A    between atoms: _127  and  _130
REMARK   58  A    between atoms: _130  and  _131
REMARK   59  A    between atoms: _131  and  _132
REMARK   60  A    between atoms: _137  and  _139
REMARK   61  A    between atoms: _139  and  _140
REMARK   62  A    between atoms: _142  and  _144
REMARK   63  A    between atoms: _144  and  _145
REMARK   64  A    between atoms: _144  and  _147
REMARK   65  A    between atoms: _147  and  _148
REMARK   66  A    between atoms: _151  and  _153
REMARK   67  A    between atoms: _153  and  _154
REMARK   68  A    between atoms: _153  and  _156
REMARK   69  A    between atoms: _156  and  _157
REMARK   70  A    between atoms: _159  and  _161
REMARK   71  A    between atoms: _161  and  _162
REMARK   72  A    between atoms: _164  and  _166
REMARK   73  A    between atoms: _166  and  _167
REMARK   74  A    between atoms: _169  and  _171
REMARK   75  A    between atoms: _171  and  _172
REMARK   76  A    between atoms: _171  and  _174
REMARK   77  A    between atoms: _174  and  _175
REMARK   78  A    between atoms: _178  and  _180
REMARK   79  A    between atoms: _180  and  _181
REMARK   80  A    between atoms: _180  and  _183
REMARK   81  A    between atoms: _186  and  _188
REMARK   82  A    between atoms: _188  and  _189
REMARK   83  A    between atoms: _188  and  _191
REMARK   84  A    between atoms: _191  and  _192
REMARK   85  A    between atoms: _194  and  _196
REMARK   86  A    between atoms: _196  and  _197
REMARK   87  A    between atoms: _196  and  _199
REMARK   88  A    between atoms: _199  and  _200
REMARK   89  A    between atoms: _210  and  _212
REMARK   90  A    between atoms: _212  and  _213
REMARK   91  A    between atoms: _215  and  _217
REMARK   92  A    between atoms: _217  and  _218
REMARK   93  A    between atoms: _217  and  _220
REMARK   94  A    between atoms: _220  and  _221
REMARK   95  A    between atoms: _223  and  _225
REMARK   96  A    between atoms: _225  and  _226
REMARK   97  A    between atoms: _228  and  _230
REMARK   98  A    between atoms: _230  and  _231
REMARK   99  A    between atoms: _230  and  _233
REMARK  100  A    between atoms: _233  and  _234
REMARK  101  A    between atoms: _235  and  _237
REMARK  102  A    between atoms: _237  and  _238
REMARK  103  A    between atoms: _241  and  _243
REMARK  104  A    between atoms: _243  and  _244
REMARK  105  A    between atoms: _243  and  _246
REMARK  106  A    between atoms: _246  and  _247
REMARK  107  A    between atoms: _247  and  _248
REMARK  108  A    between atoms: _253  and  _255
REMARK  109  A    between atoms: _255  and  _256
REMARK  110  A    between atoms: _255  and  _258
REMARK  111  A    between atoms: _258  and  _259
REMARK  112  A    between atoms: _259  and  _260
REMARK  113  A    between atoms: _260  and  _261
REMARK  114  A    between atoms: _261  and  _262
REMARK  115  A    between atoms: _267  and  _268
REMARK  116  A    between atoms: _273  and  _275
REMARK  117  A    between atoms: _275  and  _276
REMARK  118  A    between atoms: _278  and  _280
REMARK  119  A    between atoms: _280  and  _281
REMARK  120  A    between atoms: _280  and  _283
REMARK  121  A    between atoms: _286  and  _288
REMARK  122  A    between atoms: _288  and  _289
REMARK  123  A    between atoms: _288  and  _291
REMARK  124  A    between atoms: _291  and  _292
REMARK  125  A    between atoms: _297  and  _298
REMARK                            x       y       z     vdW  Elec       q    Type
REMARK                         _______ _______ _______ _____ _____    ______ ____
ROOT
ATOM      1  O   HOH     1      35.596  10.907  19.018  0.00  0.00    +0.000 OA
ENDROOT
TORSDOF 0
REMARK  Name = ../refined-set-2016/1utn/1utn_pocket.pdb
REMARK  125 active torsions:
REMARK  status: ('A' for Active; 'I' for Inactive)
REMARK    1  A    between atoms: _1  and  _5
REMARK    2  A    between atoms: _5  and  _6
REMARK    3  A    between atoms: _5  and  _8
REMARK    4  A    between atoms: _8  and  _9
REMARK    5  A    between atoms: _12  and  _14
REMARK    6  A    between atoms: _14  and  _15
REMARK    7  A    between atoms: _14  and  _17
REMARK    8  A    between atoms: _20  and  _22
REMARK    9  A    between atoms: _22  and  _23
REMARK   10  A    between atoms: _22  and  _25
REMARK   11  A    between atoms: _25  and  _26
REMARK   12  A    between atoms: _31  and  _33
REMARK   13  A    between atoms: _33  and  _34
REMARK   14  A    between atoms: _33  and  _36
REMARK   15  A    between atoms: _36  and  _37
REMARK   16  A    between atoms: _40  and  _42
REMARK   17  A    between atoms: _42  and  _43
REMARK   18  A    between atoms: _42  and  _45
REMARK   19  A    between atoms: _45  and  _46
REMARK   20  A    between atoms: _49  and  _51
REMARK   21  A    between atoms: _51  and  _52
REMARK   22  A    between atoms: _51  and  _54
REMARK   23  A    between atoms: _54  and  _55
REMARK   24  A    between atoms: _60  and  _62
REMARK   25  A    between atoms: _62  and  _63
REMARK   26  A    between atoms: _62  and  _65
REMARK   27  A    between atoms: _65  and  _66
REMARK   28  A    between atoms: _68  and  _70
REMARK   29  A    between atoms: _70  and  _71
REMARK   30  A    between atoms: _70  and  _73
REMARK   31  A    between atoms: _73  and  _74
REMARK   32  A    between atoms: _79  and  _80
REMARK   33  A    between atoms: _82  and  _84
REMARK   34  A    between atoms: _84  and  _85
REMARK   35  A    between atoms: _88  and  _90
REMARK   36  A    between atoms: _90  and  _91
REMARK   37  A    between atoms: _90  and  _93
REMARK   38  A    between atoms: _93  and  _94
REMARK   39  A    between atoms: _94  and  _95
REMARK   40  A    between atoms: _95  and  _96
REMARK   41  A    between atoms: _96  and  _97
REMARK   42  A    between atoms: _101  and  _103
REMARK   43  A    between atoms: _103  and  _104
REMARK   44  A    between atoms: _103  and  _106
REMARK   45  A    between atoms: _106  and  _107
REMARK   46  A    between atoms: _110  and  _112
REMARK   47  A    between atoms: _112  and  _113
REMARK   48  A    between atoms: _112  and  _115
REMARK   49  A    between atoms: _115  and  _116
REMARK   50  A    between atoms: _118  and  _120
REMARK   51  A    between atoms: _120  and  _121
REMARK   52  A    between atoms: _120  and  _123
REMARK   53  A    between atoms: _123  and  _124
REMARK   54  A    between atoms: _124  and  _234
REMARK   55  A    between atoms: _125  and  _127
REMARK   56  A    between atoms: _127  and  _128
REMARK   57  A    between atoms: _127  and  _130
REMARK   58  A    between atoms: _130  and  _131
REMARK   59  A    between atoms: _131  and  _132
REMARK   60  A    between atoms: _137  and  _139
REMARK   61  A    between atoms: _139  and  _140
REMARK   62  A    between atoms: _142  and  _144
REMARK   63  A    between atoms: _144  and  _145
REMARK   64  A    between atoms: _144  and  _147
REMARK   65  A    between atoms: _147  and  _148
REMARK   66  A    between atoms: _151  and  _153
REMARK   67  A    between atoms: _153  and  _154
REMARK   68  A    between atoms: _153  and  _156
REMARK   69  A    between atoms: _156  and  _157
REMARK   70  A    between atoms: _159  and  _161
REMARK   71  A    between atoms: _161  and  _162
REMARK   72  A    between atoms: _164  and  _166
REMARK   73  A    between atoms: _166  and  _167
REMARK   74  A    between atoms: _169  and  _171
REMARK   75  A    between atoms: _171  and  _172
REMARK   76  A    between atoms: _171  and  _174
REMARK   77  A    between atoms: _174  and  _175
REMARK   78  A    between atoms: _178  and  _180
REMARK   79  A    between atoms: _180  and  _181
REMARK   80  A    between atoms: _180  and  _183
REMARK   81  A    between atoms: _186  and  _188
REMARK   82  A    between atoms: _188  and  _189
REMARK   83  A    between atoms: _188  and  _191
REMARK   84  A    between atoms: _191  and  _192
REMARK   85  A    between atoms: _194  and  _196
REMARK   86  A    between atoms: _196  and  _197
REMARK   87  A    between atoms: _196  and  _199
REMARK   88  A    between atoms: _199  and  _200
REMARK   89  A    between atoms: _210  and  _212
REMARK   90  A    between atoms: _212  and  _213
REMARK   91  A    between atoms: _215  and  _217
REMARK   92  A    between atoms: _217  and  _218
REMARK   93  A    between atoms: _217  and  _220
REMARK   94  A    between atoms: _220  and  _221
REMARK   95  A    between atoms: _223  and  _225
REMARK   96  A    between atoms: _225  and  _226
REMARK   97  A    between atoms: _228  and  _230
REMARK   98  A    between atoms: _230  and  _231
REMARK   99  A    between atoms: _230  and  _233
REMARK  100  A    between atoms: _233  and  _234
REMARK  101  A    between atoms: _235  and  _237
REMARK  102  A    between atoms: _237  and  _238
REMARK  103  A    between atoms: _241  and  _243
REMARK  104  A    between atoms: _243  and  _244
REMARK  105  A    between atoms: _243  and  _246
REMARK  106  A    between atoms: _246  and  _247
REMARK  107  A    between atoms: _247  and  _248
REMARK  108  A    between atoms: _253  and  _255
REMARK  109  A    between atoms: _255  and  _256
REMARK  110  A    between atoms: _255  and  _258
REMARK  111  A    between atoms: _258  and  _259
REMARK  112  A    between atoms: _259  and  _260
REMARK  113  A    between atoms: _260  and  _261
REMARK  114  A    between atoms: _261  and  _262
REMARK  115  A    between atoms: _267  and  _268
REMARK  116  A    between atoms: _273  and  _275
REMARK  117  A    between atoms: _275  and  _276
REMARK  118  A    between atoms: _278  and  _280
REMARK  119  A    between atoms: _280  and  _281
REMARK  120  A    between atoms: _280  and  _283
REMARK  121  A    between atoms: _286  and  _288
REMARK  122  A    between atoms: _288  and  _289
REMARK  123  A    between atoms: _288  and  _291
REMARK  124  A    between atoms: _291  and  _292
REMARK  125  A    between atoms: _297  and  _298
REMARK                            x       y       z     vdW  Elec       q    Type
REMARK                         _______ _______ _______ _____ _____    ______ ____
ROOT
ATOM      1  O   HOH     1      35.586  11.887  12.442  0.00  0.00    +0.000 OA
ENDROOT
TORSDOF 0
REMARK  Name = ../refined-set-2016/1utn/1utn_pocket.pdb
REMARK  125 active torsions:
REMARK  status: ('A' for Active; 'I' for Inactive)
REMARK    1  A    between atoms: _1  and  _5
REMARK    2  A    between atoms: _5  and  _6
REMARK    3  A    between atoms: _5  and  _8
REMARK    4  A    between atoms: _8  and  _9
REMARK    5  A    between atoms: _12  and  _14
REMARK    6  A    between atoms: _14  and  _15
REMARK    7  A    between atoms: _14  and  _17
REMARK    8  A    between atoms: _20  and  _22
REMARK    9  A    between atoms: _22  and  _23
REMARK   10  A    between atoms: _22  and  _25
REMARK   11  A    between atoms: _25  and  _26
REMARK   12  A    between atoms: _31  and  _33
REMARK   13  A    between atoms: _33  and  _34
REMARK   14  A    between atoms: _33  and  _36
REMARK   15  A    between atoms: _36  and  _37
REMARK   16  A    between atoms: _40  and  _42
REMARK   17  A    between atoms: _42  and  _43
REMARK   18  A    between atoms: _42  and  _45
REMARK   19  A    between atoms: _45  and  _46
REMARK   20  A    between atoms: _49  and  _51
REMARK   21  A    between atoms: _51  and  _52
REMARK   22  A    between atoms: _51  and  _54
REMARK   23  A    between atoms: _54  and  _55
REMARK   24  A    between atoms: _60  and  _62
REMARK   25  A    between atoms: _62  and  _63
REMARK   26  A    between atoms: _62  and  _65
REMARK   27  A    between atoms: _65  and  _66
REMARK   28  A    between atoms: _68  and  _70
REMARK   29  A    between atoms: _70  and  _71
REMARK   30  A    between atoms: _70  and  _73
REMARK   31  A    between atoms: _73  and  _74
REMARK   32  A    between atoms: _79  and  _80
REMARK   33  A    between atoms: _82  and  _84
REMARK   34  A    between atoms: _84  and  _85
REMARK   35  A    between atoms: _88  and  _90
REMARK   36  A    between atoms: _90  and  _91
REMARK   37  A    between atoms: _90  and  _93
REMARK   38  A    between atoms: _93  and  _94
REMARK   39  A    between atoms: _94  and  _95
REMARK   40  A    between atoms: _95  and  _96
REMARK   41  A    between atoms: _96  and  _97
REMARK   42  A    between atoms: _101  and  _103
REMARK   43  A    between atoms: _103  and  _104
REMARK   44  A    between atoms: _103  and  _106
REMARK   45  A    between atoms: _106  and  _107
REMARK   46  A    between atoms: _110  and  _112
REMARK   47  A    between atoms: _112  and  _113
REMARK   48  A    between atoms: _112  and  _115
REMARK   49  A    between atoms: _115  and  _116
REMARK   50  A    between atoms: _118  and  _120
REMARK   51  A    between atoms: _120  and  _121
REMARK   52  A    between atoms: _120  and  _123
REMARK   53  A    between atoms: _123  and  _124
REMARK   54  A    between atoms: _124  and  _234
REMARK   55  A    between atoms: _125  and  _127
REMARK   56  A    between atoms: _127  and  _128
REMARK   57  A    between atoms: _127  and  _130
REMARK   58  A    between atoms: _130  and  _131
REMARK   59  A    between atoms: _131  and  _132
REMARK   60  A    between atoms: _137  and  _139
REMARK   61  A    between atoms: _139  and  _140
REMARK   62  A    between atoms: _142  and  _144
REMARK   63  A    between atoms: _144  and  _145
REMARK   64  A    between atoms: _144  and  _147
REMARK   65  A    between atoms: _147  and  _148
REMARK   66  A    between atoms: _151  and  _153
REMARK   67  A    between atoms: _153  and  _154
REMARK   68  A    between atoms: _153  and  _156
REMARK   69  A    between atoms: _156  and  _157
REMARK   70  A    between atoms: _159  and  _161
REMARK   71  A    between atoms: _161  and  _162
REMARK   72  A    between atoms: _164  and  _166
REMARK   73  A    between atoms: _166  and  _167
REMARK   74  A    between atoms: _169  and  _171
REMARK   75  A    between atoms: _171  and  _172
REMARK   76  A    between atoms: _171  and  _174
REMARK   77  A    between atoms: _174  and  _175
REMARK   78  A    between atoms: _178  and  _180
REMARK   79  A    between atoms: _180  and  _181
REMARK   80  A    between atoms: _180  and  _183
REMARK   81  A    between atoms: _186  and  _188
REMARK   82  A    between atoms: _188  and  _189
REMARK   83  A    between atoms: _188  and  _191
REMARK   84  A    between atoms: _191  and  _192
REMARK   85  A    between atoms: _194  and  _196
REMARK   86  A    between atoms: _196  and  _197
REMARK   87  A    between atoms: _196  and  _199
REMARK   88  A    between atoms: _199  and  _200
REMARK   89  A    between atoms: _210  and  _212
REMARK   90  A    between atoms: _212  and  _213
REMARK   91  A    between atoms: _215  and  _217
REMARK   92  A    between atoms: _217  and  _218
REMARK   93  A    between atoms: _217  and  _220
REMARK   94  A    between atoms: _220  and  _221
REMARK   95  A    between atoms: _223  and  _225
REMARK   96  A    between atoms: _225  and  _226
REMARK   97  A    between atoms: _228  and  _230
REMARK   98  A    between atoms: _230  and  _231
REMARK   99  A    between atoms: _230  and  _233
REMARK  100  A    between atoms: _233  and  _234
REMARK  101  A    between atoms: _235  and  _237
REMARK  102  A    between atoms: _237  and  _238
REMARK  103  A    between atoms: _241  and  _243
REMARK  104  A    between atoms: _243  and  _244
REMARK  105  A    between atoms: _243  and  _246
REMARK  106  A    between atoms: _246  and  _247
REMARK  107  A    between atoms: _247  and  _248
REMARK  108  A    between atoms: _253  and  _255
REMARK  109  A    between atoms: _255  and  _256
REMARK  110  A    between atoms: _255  and  _258
REMARK  111  A    between atoms: _258  and  _259
REMARK  112  A    between atoms: _259  and  _260
REMARK  113  A    between atoms: _260  and  _261
REMARK  114  A    between atoms: _261  and  _262
REMARK  115  A    between atoms: _267  and  _268
REMARK  116  A    between atoms: _273  and  _275
REMARK  117  A    between atoms: _275  and  _276
REMARK  118  A    between atoms: _278  and  _280
REMARK  119  A    between atoms: _280  and  _281
REMARK  120  A    between atoms: _280  and  _283
REMARK  121  A    between atoms: _286  and  _288
REMARK  122  A    between atoms: _288  and  _289
REMARK  123  A    between atoms: _288  and  _291
REMARK  124  A    between atoms: _291  and  _292
REMARK  125  A    between atoms: _297  and  _298
REMARK                            x       y       z     vdW  Elec       q    Type
REMARK                         _______ _______ _______ _____ _____    ______ ____
ROOT
ATOM      1  O   HOH     1      31.171  21.323  10.035  0.00  0.00    +0.000 OA
ENDROOT
TORSDOF 0
REMARK  Name = ../refined-set-2016/1utn/1utn_pocket.pdb
REMARK  125 active torsions:
REMARK  status: ('A' for Active; 'I' for Inactive)
REMARK    1  A    between atoms: _1  and  _5
REMARK    2  A    between atoms: _5  and  _6
REMARK    3  A    between atoms: _5  and  _8
REMARK    4  A    between atoms: _8  and  _9
REMARK    5  A    between atoms: _12  and  _14
REMARK    6  A    between atoms: _14  and  _15
REMARK    7  A    between atoms: _14  and  _17
REMARK    8  A    between atoms: _20  and  _22
REMARK    9  A    between atoms: _22  and  _23
REMARK   10  A    between atoms: _22  and  _25
REMARK   11  A    between atoms: _25  and  _26
REMARK   12  A    between atoms: _31  and  _33
REMARK   13  A    between atoms: _33  and  _34
REMARK   14  A    between atoms: _33  and  _36
REMARK   15  A    between atoms: _36  and  _37
REMARK   16  A    between atoms: _40  and  _42
REMARK   17  A    between atoms: _42  and  _43
REMARK   18  A    between atoms: _42  and  _45
REMARK   19  A    between atoms: _45  and  _46
REMARK   20  A    between atoms: _49  and  _51
REMARK   21  A    between atoms: _51  and  _52
REMARK   22  A    between atoms: _51  and  _54
REMARK   23  A    between atoms: _54  and  _55
REMARK   24  A    between atoms: _60  and  _62
REMARK   25  A    between atoms: _62  and  _63
REMARK   26  A    between atoms: _62  and  _65
REMARK   27  A    between atoms: _65  and  _66
REMARK   28  A    between atoms: _68  and  _70
REMARK   29  A    between atoms: _70  and  _71
REMARK   30  A    between atoms: _70  and  _73
REMARK   31  A    between atoms: _73  and  _74
REMARK   32  A    between atoms: _79  and  _80
REMARK   33  A    between atoms: _82  and  _84
REMARK   34  A    between atoms: _84  and  _85
REMARK   35  A    between atoms: _88  and  _90
REMARK   36  A    between atoms: _90  and  _91
REMARK   37  A    between atoms: _90  and  _93
REMARK   38  A    between atoms: _93  and  _94
REMARK   39  A    between atoms: _94  and  _95
REMARK   40  A    between atoms: _95  and  _96
REMARK   41  A    between atoms: _96  and  _97
REMARK   42  A    between atoms: _101  and  _103
REMARK   43  A    between atoms: _103  and  _104
REMARK   44  A    between atoms: _103  and  _106
REMARK   45  A    between atoms: _106  and  _107
REMARK   46  A    between atoms: _110  and  _112
REMARK   47  A    between atoms: _112  and  _113
REMARK   48  A    between atoms: _112  and  _115
REMARK   49  A    between atoms: _115  and  _116
REMARK   50  A    between atoms: _118  and  _120
REMARK   51  A    between atoms: _120  and  _121
REMARK   52  A    between atoms: _120  and  _123
REMARK   53  A    between atoms: _123  and  _124
REMARK   54  A    between atoms: _124  and  _234
REMARK   55  A    between atoms: _125  and  _127
REMARK   56  A    between atoms: _127  and  _128
REMARK   57  A    between atoms: _127  and  _130
REMARK   58  A    between atoms: _130  and  _131
REMARK   59  A    between atoms: _131  and  _132
REMARK   60  A    between atoms: _137  and  _139
REMARK   61  A    between atoms: _139  and  _140
REMARK   62  A    between atoms: _142  and  _144
REMARK   63  A    between atoms: _144  and  _145
REMARK   64  A    between atoms: _144  and  _147
REMARK   65  A    between atoms: _147  and  _148
REMARK   66  A    between atoms: _151  and  _153
REMARK   67  A    between atoms: _153  and  _154
REMARK   68  A    between atoms: _153  and  _156
REMARK   69  A    between atoms: _156  and  _157
REMARK   70  A    between atoms: _159  and  _161
REMARK   71  A    between atoms: _161  and  _162
REMARK   72  A    between atoms: _164  and  _166
REMARK   73  A    between atoms: _166  and  _167
REMARK   74  A    between atoms: _169  and  _171
REMARK   75  A    between atoms: _171  and  _172
REMARK   76  A    between atoms: _171  and  _174
REMARK   77  A    between atoms: _174  and  _175
REMARK   78  A    between atoms: _178  and  _180
REMARK   79  A    between atoms: _180  and  _181
REMARK   80  A    between atoms: _180  and  _183
REMARK   81  A    between atoms: _186  and  _188
REMARK   82  A    between atoms: _188  and  _189
REMARK   83  A    between atoms: _188  and  _191
REMARK   84  A    between atoms: _191  and  _192
REMARK   85  A    between atoms: _194  and  _196
REMARK   86  A    between atoms: _196  and  _197
REMARK   87  A    between atoms: _196  and  _199
REMARK   88  A    between atoms: _199  and  _200
REMARK   89  A    between atoms: _210  and  _212
REMARK   90  A    between atoms: _212  and  _213
REMARK   91  A    between atoms: _215  and  _217
REMARK   92  A    between atoms: _217  and  _218
REMARK   93  A    between atoms: _217  and  _220
REMARK   94  A    between atoms: _220  and  _221
REMARK   95  A    between atoms: _223  and  _225
REMARK   96  A    between atoms: _225  and  _226
REMARK   97  A    between atoms: _228  and  _230
REMARK   98  A    between atoms: _230  and  _231
REMARK   99  A    between atoms: _230  and  _233
REMARK  100  A    between atoms: _233  and  _234
REMARK  101  A    between atoms: _235  and  _237
REMARK  102  A    between atoms: _237  and  _238
REMARK  103  A    between atoms: _241  and  _243
REMARK  104  A    between atoms: _243  and  _244
REMARK  105  A    between atoms: _243  and  _246
REMARK  106  A    between atoms: _246  and  _247
REMARK  107  A    between atoms: _247  and  _248
REMARK  108  A    between atoms: _253  and  _255
REMARK  109  A    between atoms: _255  and  _256
REMARK  110  A    between atoms: _255  and  _258
REMARK  111  A    between atoms: _258  and  _259
REMARK  112  A    between atoms: _259  and  _260
REMARK  113  A    between atoms: _260  and  _261
REMARK  114  A    between atoms: _261  and  _262
REMARK  115  A    between atoms: _267  and  _268
REMARK  116  A    between atoms: _273  and  _275
REMARK  117  A    between atoms: _275  and  _276
REMARK  118  A    between atoms: _278  and  _280
REMARK  119  A    between atoms: _280  and  _281
REMARK  120  A    between atoms: _280  and  _283
REMARK  121  A    between atoms: _286  and  _288
REMARK  122  A    between atoms: _288  and  _289
REMARK  123  A    between atoms: _288  and  _291
REMARK  124  A    between atoms: _291  and  _292
REMARK  125  A    between atoms: _297  and  _298
REMARK                            x       y       z     vdW  Elec       q    Type
REMARK                         _______ _______ _______ _____ _____    ______ ____
ROOT
ATOM      1  O   HOH     1      31.969  18.680   9.614  0.00  0.00    +0.000 OA
ENDROOT
TORSDOF 0
REMARK  Name = ../refined-set-2016/1utn/1utn_pocket.pdb
REMARK  125 active torsions:
REMARK  status: ('A' for Active; 'I' for Inactive)
REMARK    1  A    between atoms: _1  and  _5
REMARK    2  A    between atoms: _5  and  _6
REMARK    3  A    between atoms: _5  and  _8
REMARK    4  A    between atoms: _8  and  _9
REMARK    5  A    between atoms: _12  and  _14
REMARK    6  A    between atoms: _14  and  _15
REMARK    7  A    between atoms: _14  and  _17
REMARK    8  A    between atoms: _20  and  _22
REMARK    9  A    between atoms: _22  and  _23
REMARK   10  A    between atoms: _22  and  _25
REMARK   11  A    between atoms: _25  and  _26
REMARK   12  A    between atoms: _31  and  _33
REMARK   13  A    between atoms: _33  and  _34
REMARK   14  A    between atoms: _33  and  _36
REMARK   15  A    between atoms: _36  and  _37
REMARK   16  A    between atoms: _40  and  _42
REMARK   17  A    between atoms: _42  and  _43
REMARK   18  A    between atoms: _42  and  _45
REMARK   19  A    between atoms: _45  and  _46
REMARK   20  A    between atoms: _49  and  _51
REMARK   21  A    between atoms: _51  and  _52
REMARK   22  A    between atoms: _51  and  _54
REMARK   23  A    between atoms: _54  and  _55
REMARK   24  A    between atoms: _60  and  _62
REMARK   25  A    between atoms: _62  and  _63
REMARK   26  A    between atoms: _62  and  _65
REMARK   27  A    between atoms: _65  and  _66
REMARK   28  A    between atoms: _68  and  _70
REMARK   29  A    between atoms: _70  and  _71
REMARK   30  A    between atoms: _70  and  _73
REMARK   31  A    between atoms: _73  and  _74
REMARK   32  A    between atoms: _79  and  _80
REMARK   33  A    between atoms: _82  and  _84
REMARK   34  A    between atoms: _84  and  _85
REMARK   35  A    between atoms: _88  and  _90
REMARK   36  A    between atoms: _90  and  _91
REMARK   37  A    between atoms: _90  and  _93
REMARK   38  A    between atoms: _93  and  _94
REMARK   39  A    between atoms: _94  and  _95
REMARK   40  A    between atoms: _95  and  _96
REMARK   41  A    between atoms: _96  and  _97
REMARK   42  A    between atoms: _101  and  _103
REMARK   43  A    between atoms: _103  and  _104
REMARK   44  A    between atoms: _103  and  _106
REMARK   45  A    between atoms: _106  and  _107
REMARK   46  A    between atoms: _110  and  _112
REMARK   47  A    between atoms: _112  and  _113
REMARK   48  A    between atoms: _112  and  _115
REMARK   49  A    between atoms: _115  and  _116
REMARK   50  A    between atoms: _118  and  _120
REMARK   51  A    between atoms: _120  and  _121
REMARK   52  A    between atoms: _120  and  _123
REMARK   53  A    between atoms: _123  and  _124
REMARK   54  A    between atoms: _124  and  _234
REMARK   55  A    between atoms: _125  and  _127
REMARK   56  A    between atoms: _127  and  _128
REMARK   57  A    between atoms: _127  and  _130
REMARK   58  A    between atoms: _130  and  _131
REMARK   59  A    between atoms: _131  and  _132
REMARK   60  A    between atoms: _137  and  _139
REMARK   61  A    between atoms: _139  and  _140
REMARK   62  A    between atoms: _142  and  _144
REMARK   63  A    between atoms: _144  and  _145
REMARK   64  A    between atoms: _144  and  _147
REMARK   65  A    between atoms: _147  and  _148
REMARK   66  A    between atoms: _151  and  _153
REMARK   67  A    between atoms: _153  and  _154
REMARK   68  A    between atoms: _153  and  _156
REMARK   69  A    between atoms: _156  and  _157
REMARK   70  A    between atoms: _159  and  _161
REMARK   71  A    between atoms: _161  and  _162
REMARK   72  A    between atoms: _164  and  _166
REMARK   73  A    between atoms: _166  and  _167
REMARK   74  A    between atoms: _169  and  _171
REMARK   75  A    between atoms: _171  and  _172
REMARK   76  A    between atoms: _171  and  _174
REMARK   77  A    between atoms: _174  and  _175
REMARK   78  A    between atoms: _178  and  _180
REMARK   79  A    between atoms: _180  and  _181
REMARK   80  A    between atoms: _180  and  _183
REMARK   81  A    between atoms: _186  and  _188
REMARK   82  A    between atoms: _188  and  _189
REMARK   83  A    between atoms: _188  and  _191
REMARK   84  A    between atoms: _191  and  _192
REMARK   85  A    between atoms: _194  and  _196
REMARK   86  A    between atoms: _196  and  _197
REMARK   87  A    between atoms: _196  and  _199
REMARK   88  A    between atoms: _199  and  _200
REMARK   89  A    between atoms: _210  and  _212
REMARK   90  A    between atoms: _212  and  _213
REMARK   91  A    between atoms: _215  and  _217
REMARK   92  A    between atoms: _217  and  _218
REMARK   93  A    between atoms: _217  and  _220
REMARK   94  A    between atoms: _220  and  _221
REMARK   95  A    between atoms: _223  and  _225
REMARK   96  A    between atoms: _225  and  _226
REMARK   97  A    between atoms: _228  and  _230
REMARK   98  A    between atoms: _230  and  _231
REMARK   99  A    between atoms: _230  and  _233
REMARK  100  A    between atoms: _233  and  _234
REMARK  101  A    between atoms: _235  and  _237
REMARK  102  A    between atoms: _237  and  _238
REMARK  103  A    between atoms: _241  and  _243
REMARK  104  A    between atoms: _243  and  _244
REMARK  105  A    between atoms: _243  and  _246
REMARK  106  A    between atoms: _246  and  _247
REMARK  107  A    between atoms: _247  and  _248
REMARK  108  A    between atoms: _253  and  _255
REMARK  109  A    between atoms: _255  and  _256
REMARK  110  A    between atoms: _255  and  _258
REMARK  111  A    between atoms: _258  and  _259
REMARK  112  A    between atoms: _259  and  _260
REMARK  113  A    between atoms: _260  and  _261
REMARK  114  A    between atoms: _261  and  _262
REMARK  115  A    between atoms: _267  and  _268
REMARK  116  A    between atoms: _273  and  _275
REMARK  117  A    between atoms: _275  and  _276
REMARK  118  A    between atoms: _278  and  _280
REMARK  119  A    between atoms: _280  and  _281
REMARK  120  A    between atoms: _280  and  _283
REMARK  121  A    between atoms: _286  and  _288
REMARK  122  A    between atoms: _288  and  _289
REMARK  123  A    between atoms: _288  and  _291
REMARK  124  A    between atoms: _291  and  _292
REMARK  125  A    between atoms: _297  and  _298
REMARK                            x       y       z     vdW  Elec       q    Type
REMARK                         _______ _______ _______ _____ _____    ______ ____
ROOT
ATOM      1  O   HOH     1      25.198  11.968  18.688  0.00  0.00    +0.000 OA
ENDROOT
TORSDOF 0
REMARK  Name = ../refined-set-2016/1utn/1utn_pocket.pdb
REMARK  125 active torsions:
REMARK  status: ('A' for Active; 'I' for Inactive)
REMARK    1  A    between atoms: _1  and  _5
REMARK    2  A    between atoms: _5  and  _6
REMARK    3  A    between atoms: _5  and  _8
REMARK    4  A    between atoms: _8  and  _9
REMARK    5  A    between atoms: _12  and  _14
REMARK    6  A    between atoms: _14  and  _15
REMARK    7  A    between atoms: _14  and  _17
REMARK    8  A    between atoms: _20  and  _22
REMARK    9  A    between atoms: _22  and  _23
REMARK   10  A    between atoms: _22  and  _25
REMARK   11  A    between atoms: _25  and  _26
REMARK   12  A    between atoms: _31  and  _33
REMARK   13  A    between atoms: _33  and  _34
REMARK   14  A    between atoms: _33  and  _36
REMARK   15  A    between atoms: _36  and  _37
REMARK   16  A    between atoms: _40  and  _42
REMARK   17  A    between atoms: _42  and  _43
REMARK   18  A    between atoms: _42  and  _45
REMARK   19  A    between atoms: _45  and  _46
REMARK   20  A    between atoms: _49  and  _51
REMARK   21  A    between atoms: _51  and  _52
REMARK   22  A    between atoms: _51  and  _54
REMARK   23  A    between atoms: _54  and  _55
REMARK   24  A    between atoms: _60  and  _62
REMARK   25  A    between atoms: _62  and  _63
REMARK   26  A    between atoms: _62  and  _65
REMARK   27  A    between atoms: _65  and  _66
REMARK   28  A    between atoms: _68  and  _70
REMARK   29  A    between atoms: _70  and  _71
REMARK   30  A    between atoms: _70  and  _73
REMARK   31  A    between atoms: _73  and  _74
REMARK   32  A    between atoms: _79  and  _80
REMARK   33  A    between atoms: _82  and  _84
REMARK   34  A    between atoms: _84  and  _85
REMARK   35  A    between atoms: _88  and  _90
REMARK   36  A    between atoms: _90  and  _91
REMARK   37  A    between atoms: _90  and  _93
REMARK   38  A    between atoms: _93  and  _94
REMARK   39  A    between atoms: _94  and  _95
REMARK   40  A    between atoms: _95  and  _96
REMARK   41  A    between atoms: _96  and  _97
REMARK   42  A    between atoms: _101  and  _103
REMARK   43  A    between atoms: _103  and  _104
REMARK   44  A    between atoms: _103  and  _106
REMARK   45  A    between atoms: _106  and  _107
REMARK   46  A    between atoms: _110  and  _112
REMARK   47  A    between atoms: _112  and  _113
REMARK   48  A    between atoms: _112  and  _115
REMARK   49  A    between atoms: _115  and  _116
REMARK   50  A    between atoms: _118  and  _120
REMARK   51  A    between atoms: _120  and  _121
REMARK   52  A    between atoms: _120  and  _123
REMARK   53  A    between atoms: _123  and  _124
REMARK   54  A    between atoms: _124  and  _234
REMARK   55  A    between atoms: _125  and  _127
REMARK   56  A    between atoms: _127  and  _128
REMARK   57  A    between atoms: _127  and  _130
REMARK   58  A    between atoms: _130  and  _131
REMARK   59  A    between atoms: _131  and  _132
REMARK   60  A    between atoms: _137  and  _139
REMARK   61  A    between atoms: _139  and  _140
REMARK   62  A    between atoms: _142  and  _144
REMARK   63  A    between atoms: _144  and  _145
REMARK   64  A    between atoms: _144  and  _147
REMARK   65  A    between atoms: _147  and  _148
REMARK   66  A    between atoms: _151  and  _153
REMARK   67  A    between atoms: _153  and  _154
REMARK   68  A    between atoms: _153  and  _156
REMARK   69  A    between atoms: _156  and  _157
REMARK   70  A    between atoms: _159  and  _161
REMARK   71  A    between atoms: _161  and  _162
REMARK   72  A    between atoms: _164  and  _166
REMARK   73  A    between atoms: _166  and  _167
REMARK   74  A    between atoms: _169  and  _171
REMARK   75  A    between atoms: _171  and  _172
REMARK   76  A    between atoms: _171  and  _174
REMARK   77  A    between atoms: _174  and  _175
REMARK   78  A    between atoms: _178  and  _180
REMARK   79  A    between atoms: _180  and  _181
REMARK   80  A    between atoms: _180  and  _183
REMARK   81  A    between atoms: _186  and  _188
REMARK   82  A    between atoms: _188  and  _189
REMARK   83  A    between atoms: _188  and  _191
REMARK   84  A    between atoms: _191  and  _192
REMARK   85  A    between atoms: _194  and  _196
REMARK   86  A    between atoms: _196  and  _197
REMARK   87  A    between atoms: _196  and  _199
REMARK   88  A    between atoms: _199  and  _200
REMARK   89  A    between atoms: _210  and  _212
REMARK   90  A    between atoms: _212  and  _213
REMARK   91  A    between atoms: _215  and  _217
REMARK   92  A    between atoms: _217  and  _218
REMARK   93  A    between atoms: _217  and  _220
REMARK   94  A    between atoms: _220  and  _221
REMARK   95  A    between atoms: _223  and  _225
REMARK   96  A    between atoms: _225  and  _226
REMARK   97  A    between atoms: _228  and  _230
REMARK   98  A    between atoms: _230  and  _231
REMARK   99  A    between atoms: _230  and  _233
REMARK  100  A    between atoms: _233  and  _234
REMARK  101  A    between atoms: _235  and  _237
REMARK  102  A    between atoms: _237  and  _238
REMARK  103  A    between atoms: _241  and  _243
REMARK  104  A    between atoms: _243  and  _244
REMARK  105  A    between atoms: _243  and  _246
REMARK  106  A    between atoms: _246  and  _247
REMARK  107  A    between atoms: _247  and  _248
REMARK  108  A    between atoms: _253  and  _255
REMARK  109  A    between atoms: _255  and  _256
REMARK  110  A    between atoms: _255  and  _258
REMARK  111  A    between atoms: _258  and  _259
REMARK  112  A    between atoms: _259  and  _260
REMARK  113  A    between atoms: _260  and  _261
REMARK  114  A    between atoms: _261  and  _262
REMARK  115  A    between atoms: _267  and  _268
REMARK  116  A    between atoms: _273  and  _275
REMARK  117  A    between atoms: _275  and  _276
REMARK  118  A    between atoms: _278  and  _280
REMARK  119  A    between atoms: _280  and  _281
REMARK  120  A    between atoms: _280  and  _283
REMARK  121  A    between atoms: _286  and  _288
REMARK  122  A    between atoms: _288  and  _289
REMARK  123  A    between atoms: _288  and  _291
REMARK  124  A    between atoms: _291  and  _292
REMARK  125  A    between atoms: _297  and  _298
REMARK                            x       y       z     vdW  Elec       q    Type
REMARK                         _______ _______ _______ _____ _____    ______ ____
ROOT
ATOM      1  O   HOH     1      25.380   9.424  11.390  0.00  0.00    +0.000 OA
ENDROOT
TORSDOF 0
REMARK  Name = ../refined-set-2016/1utn/1utn_pocket.pdb
REMARK  125 active torsions:
REMARK  status: ('A' for Active; 'I' for Inactive)
REMARK    1  A    between atoms: _1  and  _5
REMARK    2  A    between atoms: _5  and  _6
REMARK    3  A    between atoms: _5  and  _8
REMARK    4  A    between atoms: _8  and  _9
REMARK    5  A    between atoms: _12  and  _14
REMARK    6  A    between atoms: _14  and  _15
REMARK    7  A    between atoms: _14  and  _17
REMARK    8  A    between atoms: _20  and  _22
REMARK    9  A    between atoms: _22  and  _23
REMARK   10  A    between atoms: _22  and  _25
REMARK   11  A    between atoms: _25  and  _26
REMARK   12  A    between atoms: _31  and  _33
REMARK   13  A    between atoms: _33  and  _34
REMARK   14  A    between atoms: _33  and  _36
REMARK   15  A    between atoms: _36  and  _37
REMARK   16  A    between atoms: _40  and  _42
REMARK   17  A    between atoms: _42  and  _43
REMARK   18  A    between atoms: _42  and  _45
REMARK   19  A    between atoms: _45  and  _46
REMARK   20  A    between atoms: _49  and  _51
REMARK   21  A    between atoms: _51  and  _52
REMARK   22  A    between atoms: _51  and  _54
REMARK   23  A    between atoms: _54  and  _55
REMARK   24  A    between atoms: _60  and  _62
REMARK   25  A    between atoms: _62  and  _63
REMARK   26  A    between atoms: _62  and  _65
REMARK   27  A    between atoms: _65  and  _66
REMARK   28  A    between atoms: _68  and  _70
REMARK   29  A    between atoms: _70  and  _71
REMARK   30  A    between atoms: _70  and  _73
REMARK   31  A    between atoms: _73  and  _74
REMARK   32  A    between atoms: _79  and  _80
REMARK   33  A    between atoms: _82  and  _84
REMARK   34  A    between atoms: _84  and  _85
REMARK   35  A    between atoms: _88  and  _90
REMARK   36  A    between atoms: _90  and  _91
REMARK   37  A    between atoms: _90  and  _93
REMARK   38  A    between atoms: _93  and  _94
REMARK   39  A    between atoms: _94  and  _95
REMARK   40  A    between atoms: _95  and  _96
REMARK   41  A    between atoms: _96  and  _97
REMARK   42  A    between atoms: _101  and  _103
REMARK   43  A    between atoms: _103  and  _104
REMARK   44  A    between atoms: _103  and  _106
REMARK   45  A    between atoms: _106  and  _107
REMARK   46  A    between atoms: _110  and  _112
REMARK   47  A    between atoms: _112  and  _113
REMARK   48  A    between atoms: _112  and  _115
REMARK   49  A    between atoms: _115  and  _116
REMARK   50  A    between atoms: _118  and  _120
REMARK   51  A    between atoms: _120  and  _121
REMARK   52  A    between atoms: _120  and  _123
REMARK   53  A    between atoms: _123  and  _124
REMARK   54  A    between atoms: _124  and  _234
REMARK   55  A    between atoms: _125  and  _127
REMARK   56  A    between atoms: _127  and  _128
REMARK   57  A    between atoms: _127  and  _130
REMARK   58  A    between atoms: _130  and  _131
REMARK   59  A    between atoms: _131  and  _132
REMARK   60  A    between atoms: _137  and  _139
REMARK   61  A    between atoms: _139  and  _140
REMARK   62  A    between atoms: _142  and  _144
REMARK   63  A    between atoms: _144  and  _145
REMARK   64  A    between atoms: _144  and  _147
REMARK   65  A    between atoms: _147  and  _148
REMARK   66  A    between atoms: _151  and  _153
REMARK   67  A    between atoms: _153  and  _154
REMARK   68  A    between atoms: _153  and  _156
REMARK   69  A    between atoms: _156  and  _157
REMARK   70  A    between atoms: _159  and  _161
REMARK   71  A    between atoms: _161  and  _162
REMARK   72  A    between atoms: _164  and  _166
REMARK   73  A    between atoms: _166  and  _167
REMARK   74  A    between atoms: _169  and  _171
REMARK   75  A    between atoms: _171  and  _172
REMARK   76  A    between atoms: _171  and  _174
REMARK   77  A    between atoms: _174  and  _175
REMARK   78  A    between atoms: _178  and  _180
REMARK   79  A    between atoms: _180  and  _181
REMARK   80  A    between atoms: _180  and  _183
REMARK   81  A    between atoms: _186  and  _188
REMARK   82  A    between atoms: _188  and  _189
REMARK   83  A    between atoms: _188  and  _191
REMARK   84  A    between atoms: _191  and  _192
REMARK   85  A    between atoms: _194  and  _196
REMARK   86  A    between atoms: _196  and  _197
REMARK   87  A    between atoms: _196  and  _199
REMARK   88  A    between atoms: _199  and  _200
REMARK   89  A    between atoms: _210  and  _212
REMARK   90  A    between atoms: _212  and  _213
REMARK   91  A    between atoms: _215  and  _217
REMARK   92  A    between atoms: _217  and  _218
REMARK   93  A    between atoms: _217  and  _220
REMARK   94  A    between atoms: _220  and  _221
REMARK   95  A    between atoms: _223  and  _225
REMARK   96  A    between atoms: _225  and  _226
REMARK   97  A    between atoms: _228  and  _230
REMARK   98  A    between atoms: _230  and  _231
REMARK   99  A    between atoms: _230  and  _233
REMARK  100  A    between atoms: _233  and  _234
REMARK  101  A    between atoms: _235  and  _237
REMARK  102  A    between atoms: _237  and  _238
REMARK  103  A    between atoms: _241  and  _243
REMARK  104  A    between atoms: _243  and  _244
REMARK  105  A    between atoms: _243  and  _246
REMARK  106  A    between atoms: _246  and  _247
REMARK  107  A    between atoms: _247  and  _248
REMARK  108  A    between atoms: _253  and  _255
REMARK  109  A    between atoms: _255  and  _256
REMARK  110  A    between atoms: _255  and  _258
REMARK  111  A    between atoms: _258  and  _259
REMARK  112  A    between atoms: _259  and  _260
REMARK  113  A    between atoms: _260  and  _261
REMARK  114  A    between atoms: _261  and  _262
REMARK  115  A    between atoms: _267  and  _268
REMARK  116  A    between atoms: _273  and  _275
REMARK  117  A    between atoms: _275  and  _276
REMARK  118  A    between atoms: _278  and  _280
REMARK  119  A    between atoms: _280  and  _281
REMARK  120  A    between atoms: _280  and  _283
REMARK  121  A    between atoms: _286  and  _288
REMARK  122  A    between atoms: _288  and  _289
REMARK  123  A    between atoms: _288  and  _291
REMARK  124  A    between atoms: _291  and  _292
REMARK  125  A    between atoms: _297  and  _298
REMARK                            x       y       z     vdW  Elec       q    Type
REMARK                         _______ _______ _______ _____ _____    ______ ____
ROOT
ATOM      1  O   HOH     1      26.382  11.315  15.887  0.00  0.00    +0.000 OA
ENDROOT
TORSDOF 0
REMARK  Name = ../refined-set-2016/1utn/1utn_pocket.pdb
REMARK  125 active torsions:
REMARK  status: ('A' for Active; 'I' for Inactive)
REMARK    1  A    between atoms: _1  and  _5
REMARK    2  A    between atoms: _5  and  _6
REMARK    3  A    between atoms: _5  and  _8
REMARK    4  A    between atoms: _8  and  _9
REMARK    5  A    between atoms: _12  and  _14
REMARK    6  A    between atoms: _14  and  _15
REMARK    7  A    between atoms: _14  and  _17
REMARK    8  A    between atoms: _20  and  _22
REMARK    9  A    between atoms: _22  and  _23
REMARK   10  A    between atoms: _22  and  _25
REMARK   11  A    between atoms: _25  and  _26
REMARK   12  A    between atoms: _31  and  _33
REMARK   13  A    between atoms: _33  and  _34
REMARK   14  A    between atoms: _33  and  _36
REMARK   15  A    between atoms: _36  and  _37
REMARK   16  A    between atoms: _40  and  _42
REMARK   17  A    between atoms: _42  and  _43
REMARK   18  A    between atoms: _42  and  _45
REMARK   19  A    between atoms: _45  and  _46
REMARK   20  A    between atoms: _49  and  _51
REMARK   21  A    between atoms: _51  and  _52
REMARK   22  A    between atoms: _51  and  _54
REMARK   23  A    between atoms: _54  and  _55
REMARK   24  A    between atoms: _60  and  _62
REMARK   25  A    between atoms: _62  and  _63
REMARK   26  A    between atoms: _62  and  _65
REMARK   27  A    between atoms: _65  and  _66
REMARK   28  A    between atoms: _68  and  _70
REMARK   29  A    between atoms: _70  and  _71
REMARK   30  A    between atoms: _70  and  _73
REMARK   31  A    between atoms: _73  and  _74
REMARK   32  A    between atoms: _79  and  _80
REMARK   33  A    between atoms: _82  and  _84
REMARK   34  A    between atoms: _84  and  _85
REMARK   35  A    between atoms: _88  and  _90
REMARK   36  A    between atoms: _90  and  _91
REMARK   37  A    between atoms: _90  and  _93
REMARK   38  A    between atoms: _93  and  _94
REMARK   39  A    between atoms: _94  and  _95
REMARK   40  A    between atoms: _95  and  _96
REMARK   41  A    between atoms: _96  and  _97
REMARK   42  A    between atoms: _101  and  _103
REMARK   43  A    between atoms: _103  and  _104
REMARK   44  A    between atoms: _103  and  _106
REMARK   45  A    between atoms: _106  and  _107
REMARK   46  A    between atoms: _110  and  _112
REMARK   47  A    between atoms: _112  and  _113
REMARK   48  A    between atoms: _112  and  _115
REMARK   49  A    between atoms: _115  and  _116
REMARK   50  A    between atoms: _118  and  _120
REMARK   51  A    between atoms: _120  and  _121
REMARK   52  A    between atoms: _120  and  _123
REMARK   53  A    between atoms: _123  and  _124
REMARK   54  A    between atoms: _124  and  _234
REMARK   55  A    between atoms: _125  and  _127
REMARK   56  A    between atoms: _127  and  _128
REMARK   57  A    between atoms: _127  and  _130
REMARK   58  A    between atoms: _130  and  _131
REMARK   59  A    between atoms: _131  and  _132
REMARK   60  A    between atoms: _137  and  _139
REMARK   61  A    between atoms: _139  and  _140
REMARK   62  A    between atoms: _142  and  _144
REMARK   63  A    between atoms: _144  and  _145
REMARK   64  A    between atoms: _144  and  _147
REMARK   65  A    between atoms: _147  and  _148
REMARK   66  A    between atoms: _151  and  _153
REMARK   67  A    between atoms: _153  and  _154
REMARK   68  A    between atoms: _153  and  _156
REMARK   69  A    between atoms: _156  and  _157
REMARK   70  A    between atoms: _159  and  _161
REMARK   71  A    between atoms: _161  and  _162
REMARK   72  A    between atoms: _164  and  _166
REMARK   73  A    between atoms: _166  and  _167
REMARK   74  A    between atoms: _169  and  _171
REMARK   75  A    between atoms: _171  and  _172
REMARK   76  A    between atoms: _171  and  _174
REMARK   77  A    between atoms: _174  and  _175
REMARK   78  A    between atoms: _178  and  _180
REMARK   79  A    between atoms: _180  and  _181
REMARK   80  A    between atoms: _180  and  _183
REMARK   81  A    between atoms: _186  and  _188
REMARK   82  A    between atoms: _188  and  _189
REMARK   83  A    between atoms: _188  and  _191
REMARK   84  A    between atoms: _191  and  _192
REMARK   85  A    between atoms: _194  and  _196
REMARK   86  A    between atoms: _196  and  _197
REMARK   87  A    between atoms: _196  and  _199
REMARK   88  A    between atoms: _199  and  _200
REMARK   89  A    between atoms: _210  and  _212
REMARK   90  A    between atoms: _212  and  _213
REMARK   91  A    between atoms: _215  and  _217
REMARK   92  A    between atoms: _217  and  _218
REMARK   93  A    between atoms: _217  and  _220
REMARK   94  A    between atoms: _220  and  _221
REMARK   95  A    between atoms: _223  and  _225
REMARK   96  A    between atoms: _225  and  _226
REMARK   97  A    between atoms: _228  and  _230
REMARK   98  A    between atoms: _230  and  _231
REMARK   99  A    between atoms: _230  and  _233
REMARK  100  A    between atoms: _233  and  _234
REMARK  101  A    between atoms: _235  and  _237
REMARK  102  A    between atoms: _237  and  _238
REMARK  103  A    between atoms: _241  and  _243
REMARK  104  A    between atoms: _243  and  _244
REMARK  105  A    between atoms: _243  and  _246
REMARK  106  A    between atoms: _246  and  _247
REMARK  107  A    between atoms: _247  and  _248
REMARK  108  A    between atoms: _253  and  _255
REMARK  109  A    between atoms: _255  and  _256
REMARK  110  A    between atoms: _255  and  _258
REMARK  111  A    between atoms: _258  and  _259
REMARK  112  A    between atoms: _259  and  _260
REMARK  113  A    between atoms: _260  and  _261
REMARK  114  A    between atoms: _261  and  _262
REMARK  115  A    between atoms: _267  and  _268
REMARK  116  A    between atoms: _273  and  _275
REMARK  117  A    between atoms: _275  and  _276
REMARK  118  A    between atoms: _278  and  _280
REMARK  119  A    between atoms: _280  and  _281
REMARK  120  A    between atoms: _280  and  _283
REMARK  121  A    between atoms: _286  and  _288
REMARK  122  A    between atoms: _288  and  _289
REMARK  123  A    between atoms: _288  and  _291
REMARK  124  A    between atoms: _291  and  _292
REMARK  125  A    between atoms: _297  and  _298
REMARK                            x       y       z     vdW  Elec       q    Type
REMARK                         _______ _______ _______ _____ _____    ______ ____
ROOT
ATOM      1  O   HOH     1      28.946  10.137  14.302  0.00  0.00    +0.000 OA
ENDROOT
TORSDOF 0
REMARK  Name = ../refined-set-2016/1utn/1utn_pocket.pdb
REMARK  125 active torsions:
REMARK  status: ('A' for Active; 'I' for Inactive)
REMARK    1  A    between atoms: _1  and  _5
REMARK    2  A    between atoms: _5  and  _6
REMARK    3  A    between atoms: _5  and  _8
REMARK    4  A    between atoms: _8  and  _9
REMARK    5  A    between atoms: _12  and  _14
REMARK    6  A    between atoms: _14  and  _15
REMARK    7  A    between atoms: _14  and  _17
REMARK    8  A    between atoms: _20  and  _22
REMARK    9  A    between atoms: _22  and  _23
REMARK   10  A    between atoms: _22  and  _25
REMARK   11  A    between atoms: _25  and  _26
REMARK   12  A    between atoms: _31  and  _33
REMARK   13  A    between atoms: _33  and  _34
REMARK   14  A    between atoms: _33  and  _36
REMARK   15  A    between atoms: _36  and  _37
REMARK   16  A    between atoms: _40  and  _42
REMARK   17  A    between atoms: _42  and  _43
REMARK   18  A    between atoms: _42  and  _45
REMARK   19  A    between atoms: _45  and  _46
REMARK   20  A    between atoms: _49  and  _51
REMARK   21  A    between atoms: _51  and  _52
REMARK   22  A    between atoms: _51  and  _54
REMARK   23  A    between atoms: _54  and  _55
REMARK   24  A    between atoms: _60  and  _62
REMARK   25  A    between atoms: _62  and  _63
REMARK   26  A    between atoms: _62  and  _65
REMARK   27  A    between atoms: _65  and  _66
REMARK   28  A    between atoms: _68  and  _70
REMARK   29  A    between atoms: _70  and  _71
REMARK   30  A    between atoms: _70  and  _73
REMARK   31  A    between atoms: _73  and  _74
REMARK   32  A    between atoms: _79  and  _80
REMARK   33  A    between atoms: _82  and  _84
REMARK   34  A    between atoms: _84  and  _85
REMARK   35  A    between atoms: _88  and  _90
REMARK   36  A    between atoms: _90  and  _91
REMARK   37  A    between atoms: _90  and  _93
REMARK   38  A    between atoms: _93  and  _94
REMARK   39  A    between atoms: _94  and  _95
REMARK   40  A    between atoms: _95  and  _96
REMARK   41  A    between atoms: _96  and  _97
REMARK   42  A    between atoms: _101  and  _103
REMARK   43  A    between atoms: _103  and  _104
REMARK   44  A    between atoms: _103  and  _106
REMARK   45  A    between atoms: _106  and  _107
REMARK   46  A    between atoms: _110  and  _112
REMARK   47  A    between atoms: _112  and  _113
REMARK   48  A    between atoms: _112  and  _115
REMARK   49  A    between atoms: _115  and  _116
REMARK   50  A    between atoms: _118  and  _120
REMARK   51  A    between atoms: _120  and  _121
REMARK   52  A    between atoms: _120  and  _123
REMARK   53  A    between atoms: _123  and  _124
REMARK   54  A    between atoms: _124  and  _234
REMARK   55  A    between atoms: _125  and  _127
REMARK   56  A    between atoms: _127  and  _128
REMARK   57  A    between atoms: _127  and  _130
REMARK   58  A    between atoms: _130  and  _131
REMARK   59  A    between atoms: _131  and  _132
REMARK   60  A    between atoms: _137  and  _139
REMARK   61  A    between atoms: _139  and  _140
REMARK   62  A    between atoms: _142  and  _144
REMARK   63  A    between atoms: _144  and  _145
REMARK   64  A    between atoms: _144  and  _147
REMARK   65  A    between atoms: _147  and  _148
REMARK   66  A    between atoms: _151  and  _153
REMARK   67  A    between atoms: _153  and  _154
REMARK   68  A    between atoms: _153  and  _156
REMARK   69  A    between atoms: _156  and  _157
REMARK   70  A    between atoms: _159  and  _161
REMARK   71  A    between atoms: _161  and  _162
REMARK   72  A    between atoms: _164  and  _166
REMARK   73  A    between atoms: _166  and  _167
REMARK   74  A    between atoms: _169  and  _171
REMARK   75  A    between atoms: _171  and  _172
REMARK   76  A    between atoms: _171  and  _174
REMARK   77  A    between atoms: _174  and  _175
REMARK   78  A    between atoms: _178  and  _180
REMARK   79  A    between atoms: _180  and  _181
REMARK   80  A    between atoms: _180  and  _183
REMARK   81  A    between atoms: _186  and  _188
REMARK   82  A    between atoms: _188  and  _189
REMARK   83  A    between atoms: _188  and  _191
REMARK   84  A    between atoms: _191  and  _192
REMARK   85  A    between atoms: _194  and  _196
REMARK   86  A    between atoms: _196  and  _197
REMARK   87  A    between atoms: _196  and  _199
REMARK   88  A    between atoms: _199  and  _200
REMARK   89  A    between atoms: _210  and  _212
REMARK   90  A    between atoms: _212  and  _213
REMARK   91  A    between atoms: _215  and  _217
REMARK   92  A    between atoms: _217  and  _218
REMARK   93  A    between atoms: _217  and  _220
REMARK   94  A    between atoms: _220  and  _221
REMARK   95  A    between atoms: _223  and  _225
REMARK   96  A    between atoms: _225  and  _226
REMARK   97  A    between atoms: _228  and  _230
REMARK   98  A    between atoms: _230  and  _231
REMARK   99  A    between atoms: _230  and  _233
REMARK  100  A    between atoms: _233  and  _234
REMARK  101  A    between atoms: _235  and  _237
REMARK  102  A    between atoms: _237  and  _238
REMARK  103  A    between atoms: _241  and  _243
REMARK  104  A    between atoms: _243  and  _244
REMARK  105  A    between atoms: _243  and  _246
REMARK  106  A    between atoms: _246  and  _247
REMARK  107  A    between atoms: _247  and  _248
REMARK  108  A    between atoms: _253  and  _255
REMARK  109  A    between atoms: _255  and  _256
REMARK  110  A    between atoms: _255  and  _258
REMARK  111  A    between atoms: _258  and  _259
REMARK  112  A    between atoms: _259  and  _260
REMARK  113  A    between atoms: _260  and  _261
REMARK  114  A    between atoms: _261  and  _262
REMARK  115  A    between atoms: _267  and  _268
REMARK  116  A    between atoms: _273  and  _275
REMARK  117  A    between atoms: _275  and  _276
REMARK  118  A    between atoms: _278  and  _280
REMARK  119  A    between atoms: _280  and  _281
REMARK  120  A    between atoms: _280  and  _283
REMARK  121  A    between atoms: _286  and  _288
REMARK  122  A    between atoms: _288  and  _289
REMARK  123  A    between atoms: _288  and  _291
REMARK  124  A    between atoms: _291  and  _292
REMARK  125  A    between atoms: _297  and  _298
REMARK                            x       y       z     vdW  Elec       q    Type
REMARK                         _______ _______ _______ _____ _____    ______ ____
ROOT
ATOM      1  O   HOH     1      31.449  18.758   6.850  0.00  0.00    +0.000 OA
ENDROOT
TORSDOF 0
REMARK  Name = ../refined-set-2016/1utn/1utn_pocket.pdb
REMARK  125 active torsions:
REMARK  status: ('A' for Active; 'I' for Inactive)
REMARK    1  A    between atoms: _1  and  _5
REMARK    2  A    between atoms: _5  and  _6
REMARK    3  A    between atoms: _5  and  _8
REMARK    4  A    between atoms: _8  and  _9
REMARK    5  A    between atoms: _12  and  _14
REMARK    6  A    between atoms: _14  and  _15
REMARK    7  A    between atoms: _14  and  _17
REMARK    8  A    between atoms: _20  and  _22
REMARK    9  A    between atoms: _22  and  _23
REMARK   10  A    between atoms: _22  and  _25
REMARK   11  A    between atoms: _25  and  _26
REMARK   12  A    between atoms: _31  and  _33
REMARK   13  A    between atoms: _33  and  _34
REMARK   14  A    between atoms: _33  and  _36
REMARK   15  A    between atoms: _36  and  _37
REMARK   16  A    between atoms: _40  and  _42
REMARK   17  A    between atoms: _42  and  _43
REMARK   18  A    between atoms: _42  and  _45
REMARK   19  A    between atoms: _45  and  _46
REMARK   20  A    between atoms: _49  and  _51
REMARK   21  A    between atoms: _51  and  _52
REMARK   22  A    between atoms: _51  and  _54
REMARK   23  A    between atoms: _54  and  _55
REMARK   24  A    between atoms: _60  and  _62
REMARK   25  A    between atoms: _62  and  _63
REMARK   26  A    between atoms: _62  and  _65
REMARK   27  A    between atoms: _65  and  _66
REMARK   28  A    between atoms: _68  and  _70
REMARK   29  A    between atoms: _70  and  _71
REMARK   30  A    between atoms: _70  and  _73
REMARK   31  A    between atoms: _73  and  _74
REMARK   32  A    between atoms: _79  and  _80
REMARK   33  A    between atoms: _82  and  _84
REMARK   34  A    between atoms: _84  and  _85
REMARK   35  A    between atoms: _88  and  _90
REMARK   36  A    between atoms: _90  and  _91
REMARK   37  A    between atoms: _90  and  _93
REMARK   38  A    between atoms: _93  and  _94
REMARK   39  A    between atoms: _94  and  _95
REMARK   40  A    between atoms: _95  and  _96
REMARK   41  A    between atoms: _96  and  _97
REMARK   42  A    between atoms: _101  and  _103
REMARK   43  A    between atoms: _103  and  _104
REMARK   44  A    between atoms: _103  and  _106
REMARK   45  A    between atoms: _106  and  _107
REMARK   46  A    between atoms: _110  and  _112
REMARK   47  A    between atoms: _112  and  _113
REMARK   48  A    between atoms: _112  and  _115
REMARK   49  A    between atoms: _115  and  _116
REMARK   50  A    between atoms: _118  and  _120
REMARK   51  A    between atoms: _120  and  _121
REMARK   52  A    between atoms: _120  and  _123
REMARK   53  A    between atoms: _123  and  _124
REMARK   54  A    between atoms: _124  and  _234
REMARK   55  A    between atoms: _125  and  _127
REMARK   56  A    between atoms: _127  and  _128
REMARK   57  A    between atoms: _127  and  _130
REMARK   58  A    between atoms: _130  and  _131
REMARK   59  A    between atoms: _131  and  _132
REMARK   60  A    between atoms: _137  and  _139
REMARK   61  A    between atoms: _139  and  _140
REMARK   62  A    between atoms: _142  and  _144
REMARK   63  A    between atoms: _144  and  _145
REMARK   64  A    between atoms: _144  and  _147
REMARK   65  A    between atoms: _147  and  _148
REMARK   66  A    between atoms: _151  and  _153
REMARK   67  A    between atoms: _153  and  _154
REMARK   68  A    between atoms: _153  and  _156
REMARK   69  A    between atoms: _156  and  _157
REMARK   70  A    between atoms: _159  and  _161
REMARK   71  A    between atoms: _161  and  _162
REMARK   72  A    between atoms: _164  and  _166
REMARK   73  A    between atoms: _166  and  _167
REMARK   74  A    between atoms: _169  and  _171
REMARK   75  A    between atoms: _171  and  _172
REMARK   76  A    between atoms: _171  and  _174
REMARK   77  A    between atoms: _174  and  _175
REMARK   78  A    between atoms: _178  and  _180
REMARK   79  A    between atoms: _180  and  _181
REMARK   80  A    between atoms: _180  and  _183
REMARK   81  A    between atoms: _186  and  _188
REMARK   82  A    between atoms: _188  and  _189
REMARK   83  A    between atoms: _188  and  _191
REMARK   84  A    between atoms: _191  and  _192
REMARK   85  A    between atoms: _194  and  _196
REMARK   86  A    between atoms: _196  and  _197
REMARK   87  A    between atoms: _196  and  _199
REMARK   88  A    between atoms: _199  and  _200
REMARK   89  A    between atoms: _210  and  _212
REMARK   90  A    between atoms: _212  and  _213
REMARK   91  A    between atoms: _215  and  _217
REMARK   92  A    between atoms: _217  and  _218
REMARK   93  A    between atoms: _217  and  _220
REMARK   94  A    between atoms: _220  and  _221
REMARK   95  A    between atoms: _223  and  _225
REMARK   96  A    between atoms: _225  and  _226
REMARK   97  A    between atoms: _228  and  _230
REMARK   98  A    between atoms: _230  and  _231
REMARK   99  A    between atoms: _230  and  _233
REMARK  100  A    between atoms: _233  and  _234
REMARK  101  A    between atoms: _235  and  _237
REMARK  102  A    between atoms: _237  and  _238
REMARK  103  A    between atoms: _241  and  _243
REMARK  104  A    between atoms: _243  and  _244
REMARK  105  A    between atoms: _243  and  _246
REMARK  106  A    between atoms: _246  and  _247
REMARK  107  A    between atoms: _247  and  _248
REMARK  108  A    between atoms: _253  and  _255
REMARK  109  A    between atoms: _255  and  _256
REMARK  110  A    between atoms: _255  and  _258
REMARK  111  A    between atoms: _258  and  _259
REMARK  112  A    between atoms: _259  and  _260
REMARK  113  A    between atoms: _260  and  _261
REMARK  114  A    between atoms: _261  and  _262
REMARK  115  A    between atoms: _267  and  _268
REMARK  116  A    between atoms: _273  and  _275
REMARK  117  A    between atoms: _275  and  _276
REMARK  118  A    between atoms: _278  and  _280
REMARK  119  A    between atoms: _280  and  _281
REMARK  120  A    between atoms: _280  and  _283
REMARK  121  A    between atoms: _286  and  _288
REMARK  122  A    between atoms: _288  and  _289
REMARK  123  A    between atoms: _288  and  _291
REMARK  124  A    between atoms: _291  and  _292
REMARK  125  A    between atoms: _297  and  _298
REMARK                            x       y       z     vdW  Elec       q    Type
REMARK                         _______ _______ _______ _____ _____    ______ ____
ROOT
ATOM      1  O   HOH     1      31.931  15.036  10.151  0.00  0.00    +0.000 OA
ENDROOT
TORSDOF 0
REMARK  Name = ../refined-set-2016/1utn/1utn_pocket.pdb
REMARK  125 active torsions:
REMARK  status: ('A' for Active; 'I' for Inactive)
REMARK    1  A    between atoms: _1  and  _5
REMARK    2  A    between atoms: _5  and  _6
REMARK    3  A    between atoms: _5  and  _8
REMARK    4  A    between atoms: _8  and  _9
REMARK    5  A    between atoms: _12  and  _14
REMARK    6  A    between atoms: _14  and  _15
REMARK    7  A    between atoms: _14  and  _17
REMARK    8  A    between atoms: _20  and  _22
REMARK    9  A    between atoms: _22  and  _23
REMARK   10  A    between atoms: _22  and  _25
REMARK   11  A    between atoms: _25  and  _26
REMARK   12  A    between atoms: _31  and  _33
REMARK   13  A    between atoms: _33  and  _34
REMARK   14  A    between atoms: _33  and  _36
REMARK   15  A    between atoms: _36  and  _37
REMARK   16  A    between atoms: _40  and  _42
REMARK   17  A    between atoms: _42  and  _43
REMARK   18  A    between atoms: _42  and  _45
REMARK   19  A    between atoms: _45  and  _46
REMARK   20  A    between atoms: _49  and  _51
REMARK   21  A    between atoms: _51  and  _52
REMARK   22  A    between atoms: _51  and  _54
REMARK   23  A    between atoms: _54  and  _55
REMARK   24  A    between atoms: _60  and  _62
REMARK   25  A    between atoms: _62  and  _63
REMARK   26  A    between atoms: _62  and  _65
REMARK   27  A    between atoms: _65  and  _66
REMARK   28  A    between atoms: _68  and  _70
REMARK   29  A    between atoms: _70  and  _71
REMARK   30  A    between atoms: _70  and  _73
REMARK   31  A    between atoms: _73  and  _74
REMARK   32  A    between atoms: _79  and  _80
REMARK   33  A    between atoms: _82  and  _84
REMARK   34  A    between atoms: _84  and  _85
REMARK   35  A    between atoms: _88  and  _90
REMARK   36  A    between atoms: _90  and  _91
REMARK   37  A    between atoms: _90  and  _93
REMARK   38  A    between atoms: _93  and  _94
REMARK   39  A    between atoms: _94  and  _95
REMARK   40  A    between atoms: _95  and  _96
REMARK   41  A    between atoms: _96  and  _97
REMARK   42  A    between atoms: _101  and  _103
REMARK   43  A    between atoms: _103  and  _104
REMARK   44  A    between atoms: _103  and  _106
REMARK   45  A    between atoms: _106  and  _107
REMARK   46  A    between atoms: _110  and  _112
REMARK   47  A    between atoms: _112  and  _113
REMARK   48  A    between atoms: _112  and  _115
REMARK   49  A    between atoms: _115  and  _116
REMARK   50  A    between atoms: _118  and  _120
REMARK   51  A    between atoms: _120  and  _121
REMARK   52  A    between atoms: _120  and  _123
REMARK   53  A    between atoms: _123  and  _124
REMARK   54  A    between atoms: _124  and  _234
REMARK   55  A    between atoms: _125  and  _127
REMARK   56  A    between atoms: _127  and  _128
REMARK   57  A    between atoms: _127  and  _130
REMARK   58  A    between atoms: _130  and  _131
REMARK   59  A    between atoms: _131  and  _132
REMARK   60  A    between atoms: _137  and  _139
REMARK   61  A    between atoms: _139  and  _140
REMARK   62  A    between atoms: _142  and  _144
REMARK   63  A    between atoms: _144  and  _145
REMARK   64  A    between atoms: _144  and  _147
REMARK   65  A    between atoms: _147  and  _148
REMARK   66  A    between atoms: _151  and  _153
REMARK   67  A    between atoms: _153  and  _154
REMARK   68  A    between atoms: _153  and  _156
REMARK   69  A    between atoms: _156  and  _157
REMARK   70  A    between atoms: _159  and  _161
REMARK   71  A    between atoms: _161  and  _162
REMARK   72  A    between atoms: _164  and  _166
REMARK   73  A    between atoms: _166  and  _167
REMARK   74  A    between atoms: _169  and  _171
REMARK   75  A    between atoms: _171  and  _172
REMARK   76  A    between atoms: _171  and  _174
REMARK   77  A    between atoms: _174  and  _175
REMARK   78  A    between atoms: _178  and  _180
REMARK   79  A    between atoms: _180  and  _181
REMARK   80  A    between atoms: _180  and  _183
REMARK   81  A    between atoms: _186  and  _188
REMARK   82  A    between atoms: _188  and  _189
REMARK   83  A    between atoms: _188  and  _191
REMARK   84  A    between atoms: _191  and  _192
REMARK   85  A    between atoms: _194  and  _196
REMARK   86  A    between atoms: _196  and  _197
REMARK   87  A    between atoms: _196  and  _199
REMARK   88  A    between atoms: _199  and  _200
REMARK   89  A    between atoms: _210  and  _212
REMARK   90  A    between atoms: _212  and  _213
REMARK   91  A    between atoms: _215  and  _217
REMARK   92  A    between atoms: _217  and  _218
REMARK   93  A    between atoms: _217  and  _220
REMARK   94  A    between atoms: _220  and  _221
REMARK   95  A    between atoms: _223  and  _225
REMARK   96  A    between atoms: _225  and  _226
REMARK   97  A    between atoms: _228  and  _230
REMARK   98  A    between atoms: _230  and  _231
REMARK   99  A    between atoms: _230  and  _233
REMARK  100  A    between atoms: _233  and  _234
REMARK  101  A    between atoms: _235  and  _237
REMARK  102  A    between atoms: _237  and  _238
REMARK  103  A    between atoms: _241  and  _243
REMARK  104  A    between atoms: _243  and  _244
REMARK  105  A    between atoms: _243  and  _246
REMARK  106  A    between atoms: _246  and  _247
REMARK  107  A    between atoms: _247  and  _248
REMARK  108  A    between atoms: _253  and  _255
REMARK  109  A    between atoms: _255  and  _256
REMARK  110  A    between atoms: _255  and  _258
REMARK  111  A    between atoms: _258  and  _259
REMARK  112  A    between atoms: _259  and  _260
REMARK  113  A    between atoms: _260  and  _261
REMARK  114  A    between atoms: _261  and  _262
REMARK  115  A    between atoms: _267  and  _268
REMARK  116  A    between atoms: _273  and  _275
REMARK  117  A    between atoms: _275  and  _276
REMARK  118  A    between atoms: _278  and  _280
REMARK  119  A    between atoms: _280  and  _281
REMARK  120  A    between atoms: _280  and  _283
REMARK  121  A    between atoms: _286  and  _288
REMARK  122  A    between atoms: _288  and  _289
REMARK  123  A    between atoms: _288  and  _291
REMARK  124  A    between atoms: _291  and  _292
REMARK  125  A    between atoms: _297  and  _298
REMARK                            x       y       z     vdW  Elec       q    Type
REMARK                         _______ _______ _______ _____ _____    ______ ____
ROOT
ATOM      1  O   HOH     1      26.360  18.396  16.035  0.00  0.00    +0.000 OA
ENDROOT
TORSDOF 0
REMARK  Name = ../refined-set-2016/1utn/1utn_pocket.pdb
REMARK  125 active torsions:
REMARK  status: ('A' for Active; 'I' for Inactive)
REMARK    1  A    between atoms: _1  and  _5
REMARK    2  A    between atoms: _5  and  _6
REMARK    3  A    between atoms: _5  and  _8
REMARK    4  A    between atoms: _8  and  _9
REMARK    5  A    between atoms: _12  and  _14
REMARK    6  A    between atoms: _14  and  _15
REMARK    7  A    between atoms: _14  and  _17
REMARK    8  A    between atoms: _20  and  _22
REMARK    9  A    between atoms: _22  and  _23
REMARK   10  A    between atoms: _22  and  _25
REMARK   11  A    between atoms: _25  and  _26
REMARK   12  A    between atoms: _31  and  _33
REMARK   13  A    between atoms: _33  and  _34
REMARK   14  A    between atoms: _33  and  _36
REMARK   15  A    between atoms: _36  and  _37
REMARK   16  A    between atoms: _40  and  _42
REMARK   17  A    between atoms: _42  and  _43
REMARK   18  A    between atoms: _42  and  _45
REMARK   19  A    between atoms: _45  and  _46
REMARK   20  A    between atoms: _49  and  _51
REMARK   21  A    between atoms: _51  and  _52
REMARK   22  A    between atoms: _51  and  _54
REMARK   23  A    between atoms: _54  and  _55
REMARK   24  A    between atoms: _60  and  _62
REMARK   25  A    between atoms: _62  and  _63
REMARK   26  A    between atoms: _62  and  _65
REMARK   27  A    between atoms: _65  and  _66
REMARK   28  A    between atoms: _68  and  _70
REMARK   29  A    between atoms: _70  and  _71
REMARK   30  A    between atoms: _70  and  _73
REMARK   31  A    between atoms: _73  and  _74
REMARK   32  A    between atoms: _79  and  _80
REMARK   33  A    between atoms: _82  and  _84
REMARK   34  A    between atoms: _84  and  _85
REMARK   35  A    between atoms: _88  and  _90
REMARK   36  A    between atoms: _90  and  _91
REMARK   37  A    between atoms: _90  and  _93
REMARK   38  A    between atoms: _93  and  _94
REMARK   39  A    between atoms: _94  and  _95
REMARK   40  A    between atoms: _95  and  _96
REMARK   41  A    between atoms: _96  and  _97
REMARK   42  A    between atoms: _101  and  _103
REMARK   43  A    between atoms: _103  and  _104
REMARK   44  A    between atoms: _103  and  _106
REMARK   45  A    between atoms: _106  and  _107
REMARK   46  A    between atoms: _110  and  _112
REMARK   47  A    between atoms: _112  and  _113
REMARK   48  A    between atoms: _112  and  _115
REMARK   49  A    between atoms: _115  and  _116
REMARK   50  A    between atoms: _118  and  _120
REMARK   51  A    between atoms: _120  and  _121
REMARK   52  A    between atoms: _120  and  _123
REMARK   53  A    between atoms: _123  and  _124
REMARK   54  A    between atoms: _124  and  _234
REMARK   55  A    between atoms: _125  and  _127
REMARK   56  A    between atoms: _127  and  _128
REMARK   57  A    between atoms: _127  and  _130
REMARK   58  A    between atoms: _130  and  _131
REMARK   59  A    between atoms: _131  and  _132
REMARK   60  A    between atoms: _137  and  _139
REMARK   61  A    between atoms: _139  and  _140
REMARK   62  A    between atoms: _142  and  _144
REMARK   63  A    between atoms: _144  and  _145
REMARK   64  A    between atoms: _144  and  _147
REMARK   65  A    between atoms: _147  and  _148
REMARK   66  A    between atoms: _151  and  _153
REMARK   67  A    between atoms: _153  and  _154
REMARK   68  A    between atoms: _153  and  _156
REMARK   69  A    between atoms: _156  and  _157
REMARK   70  A    between atoms: _159  and  _161
REMARK   71  A    between atoms: _161  and  _162
REMARK   72  A    between atoms: _164  and  _166
REMARK   73  A    between atoms: _166  and  _167
REMARK   74  A    between atoms: _169  and  _171
REMARK   75  A    between atoms: _171  and  _172
REMARK   76  A    between atoms: _171  and  _174
REMARK   77  A    between atoms: _174  and  _175
REMARK   78  A    between atoms: _178  and  _180
REMARK   79  A    between atoms: _180  and  _181
REMARK   80  A    between atoms: _180  and  _183
REMARK   81  A    between atoms: _186  and  _188
REMARK   82  A    between atoms: _188  and  _189
REMARK   83  A    between atoms: _188  and  _191
REMARK   84  A    between atoms: _191  and  _192
REMARK   85  A    between atoms: _194  and  _196
REMARK   86  A    between atoms: _196  and  _197
REMARK   87  A    between atoms: _196  and  _199
REMARK   88  A    between atoms: _199  and  _200
REMARK   89  A    between atoms: _210  and  _212
REMARK   90  A    between atoms: _212  and  _213
REMARK   91  A    between atoms: _215  and  _217
REMARK   92  A    between atoms: _217  and  _218
REMARK   93  A    between atoms: _217  and  _220
REMARK   94  A    between atoms: _220  and  _221
REMARK   95  A    between atoms: _223  and  _225
REMARK   96  A    between atoms: _225  and  _226
REMARK   97  A    between atoms: _228  and  _230
REMARK   98  A    between atoms: _230  and  _231
REMARK   99  A    between atoms: _230  and  _233
REMARK  100  A    between atoms: _233  and  _234
REMARK  101  A    between atoms: _235  and  _237
REMARK  102  A    between atoms: _237  and  _238
REMARK  103  A    between atoms: _241  and  _243
REMARK  104  A    between atoms: _243  and  _244
REMARK  105  A    between atoms: _243  and  _246
REMARK  106  A    between atoms: _246  and  _247
REMARK  107  A    between atoms: _247  and  _248
REMARK  108  A    between atoms: _253  and  _255
REMARK  109  A    between atoms: _255  and  _256
REMARK  110  A    between atoms: _255  and  _258
REMARK  111  A    between atoms: _258  and  _259
REMARK  112  A    between atoms: _259  and  _260
REMARK  113  A    between atoms: _260  and  _261
REMARK  114  A    between atoms: _261  and  _262
REMARK  115  A    between atoms: _267  and  _268
REMARK  116  A    between atoms: _273  and  _275
REMARK  117  A    between atoms: _275  and  _276
REMARK  118  A    between atoms: _278  and  _280
REMARK  119  A    between atoms: _280  and  _281
REMARK  120  A    between atoms: _280  and  _283
REMARK  121  A    between atoms: _286  and  _288
REMARK  122  A    between atoms: _288  and  _289
REMARK  123  A    between atoms: _288  and  _291
REMARK  124  A    between atoms: _291  and  _292
REMARK  125  A    between atoms: _297  and  _298
REMARK                            x       y       z     vdW  Elec       q    Type
REMARK                         _______ _______ _______ _____ _____    ______ ____
ROOT
ATOM      1  O   HOH     1      29.374  22.018  13.182  0.00  0.00    +0.000 OA
ENDROOT
TORSDOF 0
REMARK  Name = ../refined-set-2016/1utn/1utn_pocket.pdb
REMARK  125 active torsions:
REMARK  status: ('A' for Active; 'I' for Inactive)
REMARK    1  A    between atoms: _1  and  _5
REMARK    2  A    between atoms: _5  and  _6
REMARK    3  A    between atoms: _5  and  _8
REMARK    4  A    between atoms: _8  and  _9
REMARK    5  A    between atoms: _12  and  _14
REMARK    6  A    between atoms: _14  and  _15
REMARK    7  A    between atoms: _14  and  _17
REMARK    8  A    between atoms: _20  and  _22
REMARK    9  A    between atoms: _22  and  _23
REMARK   10  A    between atoms: _22  and  _25
REMARK   11  A    between atoms: _25  and  _26
REMARK   12  A    between atoms: _31  and  _33
REMARK   13  A    between atoms: _33  and  _34
REMARK   14  A    between atoms: _33  and  _36
REMARK   15  A    between atoms: _36  and  _37
REMARK   16  A    between atoms: _40  and  _42
REMARK   17  A    between atoms: _42  and  _43
REMARK   18  A    between atoms: _42  and  _45
REMARK   19  A    between atoms: _45  and  _46
REMARK   20  A    between atoms: _49  and  _51
REMARK   21  A    between atoms: _51  and  _52
REMARK   22  A    between atoms: _51  and  _54
REMARK   23  A    between atoms: _54  and  _55
REMARK   24  A    between atoms: _60  and  _62
REMARK   25  A    between atoms: _62  and  _63
REMARK   26  A    between atoms: _62  and  _65
REMARK   27  A    between atoms: _65  and  _66
REMARK   28  A    between atoms: _68  and  _70
REMARK   29  A    between atoms: _70  and  _71
REMARK   30  A    between atoms: _70  and  _73
REMARK   31  A    between atoms: _73  and  _74
REMARK   32  A    between atoms: _79  and  _80
REMARK   33  A    between atoms: _82  and  _84
REMARK   34  A    between atoms: _84  and  _85
REMARK   35  A    between atoms: _88  and  _90
REMARK   36  A    between atoms: _90  and  _91
REMARK   37  A    between atoms: _90  and  _93
REMARK   38  A    between atoms: _93  and  _94
REMARK   39  A    between atoms: _94  and  _95
REMARK   40  A    between atoms: _95  and  _96
REMARK   41  A    between atoms: _96  and  _97
REMARK   42  A    between atoms: _101  and  _103
REMARK   43  A    between atoms: _103  and  _104
REMARK   44  A    between atoms: _103  and  _106
REMARK   45  A    between atoms: _106  and  _107
REMARK   46  A    between atoms: _110  and  _112
REMARK   47  A    between atoms: _112  and  _113
REMARK   48  A    between atoms: _112  and  _115
REMARK   49  A    between atoms: _115  and  _116
REMARK   50  A    between atoms: _118  and  _120
REMARK   51  A    between atoms: _120  and  _121
REMARK   52  A    between atoms: _120  and  _123
REMARK   53  A    between atoms: _123  and  _124
REMARK   54  A    between atoms: _124  and  _234
REMARK   55  A    between atoms: _125  and  _127
REMARK   56  A    between atoms: _127  and  _128
REMARK   57  A    between atoms: _127  and  _130
REMARK   58  A    between atoms: _130  and  _131
REMARK   59  A    between atoms: _131  and  _132
REMARK   60  A    between atoms: _137  and  _139
REMARK   61  A    between atoms: _139  and  _140
REMARK   62  A    between atoms: _142  and  _144
REMARK   63  A    between atoms: _144  and  _145
REMARK   64  A    between atoms: _144  and  _147
REMARK   65  A    between atoms: _147  and  _148
REMARK   66  A    between atoms: _151  and  _153
REMARK   67  A    between atoms: _153  and  _154
REMARK   68  A    between atoms: _153  and  _156
REMARK   69  A    between atoms: _156  and  _157
REMARK   70  A    between atoms: _159  and  _161
REMARK   71  A    between atoms: _161  and  _162
REMARK   72  A    between atoms: _164  and  _166
REMARK   73  A    between atoms: _166  and  _167
REMARK   74  A    between atoms: _169  and  _171
REMARK   75  A    between atoms: _171  and  _172
REMARK   76  A    between atoms: _171  and  _174
REMARK   77  A    between atoms: _174  and  _175
REMARK   78  A    between atoms: _178  and  _180
REMARK   79  A    between atoms: _180  and  _181
REMARK   80  A    between atoms: _180  and  _183
REMARK   81  A    between atoms: _186  and  _188
REMARK   82  A    between atoms: _188  and  _189
REMARK   83  A    between atoms: _188  and  _191
REMARK   84  A    between atoms: _191  and  _192
REMARK   85  A    between atoms: _194  and  _196
REMARK   86  A    between atoms: _196  and  _197
REMARK   87  A    between atoms: _196  and  _199
REMARK   88  A    between atoms: _199  and  _200
REMARK   89  A    between atoms: _210  and  _212
REMARK   90  A    between atoms: _212  and  _213
REMARK   91  A    between atoms: _215  and  _217
REMARK   92  A    between atoms: _217  and  _218
REMARK   93  A    between atoms: _217  and  _220
REMARK   94  A    between atoms: _220  and  _221
REMARK   95  A    between atoms: _223  and  _225
REMARK   96  A    between atoms: _225  and  _226
REMARK   97  A    between atoms: _228  and  _230
REMARK   98  A    between atoms: _230  and  _231
REMARK   99  A    between atoms: _230  and  _233
REMARK  100  A    between atoms: _233  and  _234
REMARK  101  A    between atoms: _235  and  _237
REMARK  102  A    between atoms: _237  and  _238
REMARK  103  A    between atoms: _241  and  _243
REMARK  104  A    between atoms: _243  and  _244
REMARK  105  A    between atoms: _243  and  _246
REMARK  106  A    between atoms: _246  and  _247
REMARK  107  A    between atoms: _247  and  _248
REMARK  108  A    between atoms: _253  and  _255
REMARK  109  A    between atoms: _255  and  _256
REMARK  110  A    between atoms: _255  and  _258
REMARK  111  A    between atoms: _258  and  _259
REMARK  112  A    between atoms: _259  and  _260
REMARK  113  A    between atoms: _260  and  _261
REMARK  114  A    between atoms: _261  and  _262
REMARK  115  A    between atoms: _267  and  _268
REMARK  116  A    between atoms: _273  and  _275
REMARK  117  A    between atoms: _275  and  _276
REMARK  118  A    between atoms: _278  and  _280
REMARK  119  A    between atoms: _280  and  _281
REMARK  120  A    between atoms: _280  and  _283
REMARK  121  A    between atoms: _286  and  _288
REMARK  122  A    between atoms: _288  and  _289
REMARK  123  A    between atoms: _288  and  _291
REMARK  124  A    between atoms: _291  and  _292
REMARK  125  A    between atoms: _297  and  _298
REMARK                            x       y       z     vdW  Elec       q    Type
REMARK                         _______ _______ _______ _____ _____    ______ ____
ROOT
ATOM      1  O   HOH     1      29.297  15.477  11.729  0.00  0.00    +0.000 OA
ENDROOT
TORSDOF 0
REMARK  Name = ../refined-set-2016/1utn/1utn_pocket.pdb
REMARK  125 active torsions:
REMARK  status: ('A' for Active; 'I' for Inactive)
REMARK    1  A    between atoms: _1  and  _5
REMARK    2  A    between atoms: _5  and  _6
REMARK    3  A    between atoms: _5  and  _8
REMARK    4  A    between atoms: _8  and  _9
REMARK    5  A    between atoms: _12  and  _14
REMARK    6  A    between atoms: _14  and  _15
REMARK    7  A    between atoms: _14  and  _17
REMARK    8  A    between atoms: _20  and  _22
REMARK    9  A    between atoms: _22  and  _23
REMARK   10  A    between atoms: _22  and  _25
REMARK   11  A    between atoms: _25  and  _26
REMARK   12  A    between atoms: _31  and  _33
REMARK   13  A    between atoms: _33  and  _34
REMARK   14  A    between atoms: _33  and  _36
REMARK   15  A    between atoms: _36  and  _37
REMARK   16  A    between atoms: _40  and  _42
REMARK   17  A    between atoms: _42  and  _43
REMARK   18  A    between atoms: _42  and  _45
REMARK   19  A    between atoms: _45  and  _46
REMARK   20  A    between atoms: _49  and  _51
REMARK   21  A    between atoms: _51  and  _52
REMARK   22  A    between atoms: _51  and  _54
REMARK   23  A    between atoms: _54  and  _55
REMARK   24  A    between atoms: _60  and  _62
REMARK   25  A    between atoms: _62  and  _63
REMARK   26  A    between atoms: _62  and  _65
REMARK   27  A    between atoms: _65  and  _66
REMARK   28  A    between atoms: _68  and  _70
REMARK   29  A    between atoms: _70  and  _71
REMARK   30  A    between atoms: _70  and  _73
REMARK   31  A    between atoms: _73  and  _74
REMARK   32  A    between atoms: _79  and  _80
REMARK   33  A    between atoms: _82  and  _84
REMARK   34  A    between atoms: _84  and  _85
REMARK   35  A    between atoms: _88  and  _90
REMARK   36  A    between atoms: _90  and  _91
REMARK   37  A    between atoms: _90  and  _93
REMARK   38  A    between atoms: _93  and  _94
REMARK   39  A    between atoms: _94  and  _95
REMARK   40  A    between atoms: _95  and  _96
REMARK   41  A    between atoms: _96  and  _97
REMARK   42  A    between atoms: _101  and  _103
REMARK   43  A    between atoms: _103  and  _104
REMARK   44  A    between atoms: _103  and  _106
REMARK   45  A    between atoms: _106  and  _107
REMARK   46  A    between atoms: _110  and  _112
REMARK   47  A    between atoms: _112  and  _113
REMARK   48  A    between atoms: _112  and  _115
REMARK   49  A    between atoms: _115  and  _116
REMARK   50  A    between atoms: _118  and  _120
REMARK   51  A    between atoms: _120  and  _121
REMARK   52  A    between atoms: _120  and  _123
REMARK   53  A    between atoms: _123  and  _124
REMARK   54  A    between atoms: _124  and  _234
REMARK   55  A    between atoms: _125  and  _127
REMARK   56  A    between atoms: _127  and  _128
REMARK   57  A    between atoms: _127  and  _130
REMARK   58  A    between atoms: _130  and  _131
REMARK   59  A    between atoms: _131  and  _132
REMARK   60  A    between atoms: _137  and  _139
REMARK   61  A    between atoms: _139  and  _140
REMARK   62  A    between atoms: _142  and  _144
REMARK   63  A    between atoms: _144  and  _145
REMARK   64  A    between atoms: _144  and  _147
REMARK   65  A    between atoms: _147  and  _148
REMARK   66  A    between atoms: _151  and  _153
REMARK   67  A    between atoms: _153  and  _154
REMARK   68  A    between atoms: _153  and  _156
REMARK   69  A    between atoms: _156  and  _157
REMARK   70  A    between atoms: _159  and  _161
REMARK   71  A    between atoms: _161  and  _162
REMARK   72  A    between atoms: _164  and  _166
REMARK   73  A    between atoms: _166  and  _167
REMARK   74  A    between atoms: _169  and  _171
REMARK   75  A    between atoms: _171  and  _172
REMARK   76  A    between atoms: _171  and  _174
REMARK   77  A    between atoms: _174  and  _175
REMARK   78  A    between atoms: _178  and  _180
REMARK   79  A    between atoms: _180  and  _181
REMARK   80  A    between atoms: _180  and  _183
REMARK   81  A    between atoms: _186  and  _188
REMARK   82  A    between atoms: _188  and  _189
REMARK   83  A    between atoms: _188  and  _191
REMARK   84  A    between atoms: _191  and  _192
REMARK   85  A    between atoms: _194  and  _196
REMARK   86  A    between atoms: _196  and  _197
REMARK   87  A    between atoms: _196  and  _199
REMARK   88  A    between atoms: _199  and  _200
REMARK   89  A    between atoms: _210  and  _212
REMARK   90  A    between atoms: _212  and  _213
REMARK   91  A    between atoms: _215  and  _217
REMARK   92  A    between atoms: _217  and  _218
REMARK   93  A    between atoms: _217  and  _220
REMARK   94  A    between atoms: _220  and  _221
REMARK   95  A    between atoms: _223  and  _225
REMARK   96  A    between atoms: _225  and  _226
REMARK   97  A    between atoms: _228  and  _230
REMARK   98  A    between atoms: _230  and  _231
REMARK   99  A    between atoms: _230  and  _233
REMARK  100  A    between atoms: _233  and  _234
REMARK  101  A    between atoms: _235  and  _237
REMARK  102  A    between atoms: _237  and  _238
REMARK  103  A    between atoms: _241  and  _243
REMARK  104  A    between atoms: _243  and  _244
REMARK  105  A    between atoms: _243  and  _246
REMARK  106  A    between atoms: _246  and  _247
REMARK  107  A    between atoms: _247  and  _248
REMARK  108  A    between atoms: _253  and  _255
REMARK  109  A    between atoms: _255  and  _256
REMARK  110  A    between atoms: _255  and  _258
REMARK  111  A    between atoms: _258  and  _259
REMARK  112  A    between atoms: _259  and  _260
REMARK  113  A    between atoms: _260  and  _261
REMARK  114  A    between atoms: _261  and  _262
REMARK  115  A    between atoms: _267  and  _268
REMARK  116  A    between atoms: _273  and  _275
REMARK  117  A    between atoms: _275  and  _276
REMARK  118  A    between atoms: _278  and  _280
REMARK  119  A    between atoms: _280  and  _281
REMARK  120  A    between atoms: _280  and  _283
REMARK  121  A    between atoms: _286  and  _288
REMARK  122  A    between atoms: _288  and  _289
REMARK  123  A    between atoms: _288  and  _291
REMARK  124  A    between atoms: _291  and  _292
REMARK  125  A    between atoms: _297  and  _298
REMARK                            x       y       z     vdW  Elec       q    Type
REMARK                         _______ _______ _______ _____ _____    ______ ____
ROOT
ATOM      1  O   HOH     1      26.207  10.011  24.582  0.00  0.00    +0.000 OA
ENDROOT
TORSDOF 0
REMARK  Name = ../refined-set-2016/1utn/1utn_pocket.pdb
REMARK  125 active torsions:
REMARK  status: ('A' for Active; 'I' for Inactive)
REMARK    1  A    between atoms: _1  and  _5
REMARK    2  A    between atoms: _5  and  _6
REMARK    3  A    between atoms: _5  and  _8
REMARK    4  A    between atoms: _8  and  _9
REMARK    5  A    between atoms: _12  and  _14
REMARK    6  A    between atoms: _14  and  _15
REMARK    7  A    between atoms: _14  and  _17
REMARK    8  A    between atoms: _20  and  _22
REMARK    9  A    between atoms: _22  and  _23
REMARK   10  A    between atoms: _22  and  _25
REMARK   11  A    between atoms: _25  and  _26
REMARK   12  A    between atoms: _31  and  _33
REMARK   13  A    between atoms: _33  and  _34
REMARK   14  A    between atoms: _33  and  _36
REMARK   15  A    between atoms: _36  and  _37
REMARK   16  A    between atoms: _40  and  _42
REMARK   17  A    between atoms: _42  and  _43
REMARK   18  A    between atoms: _42  and  _45
REMARK   19  A    between atoms: _45  and  _46
REMARK   20  A    between atoms: _49  and  _51
REMARK   21  A    between atoms: _51  and  _52
REMARK   22  A    between atoms: _51  and  _54
REMARK   23  A    between atoms: _54  and  _55
REMARK   24  A    between atoms: _60  and  _62
REMARK   25  A    between atoms: _62  and  _63
REMARK   26  A    between atoms: _62  and  _65
REMARK   27  A    between atoms: _65  and  _66
REMARK   28  A    between atoms: _68  and  _70
REMARK   29  A    between atoms: _70  and  _71
REMARK   30  A    between atoms: _70  and  _73
REMARK   31  A    between atoms: _73  and  _74
REMARK   32  A    between atoms: _79  and  _80
REMARK   33  A    between atoms: _82  and  _84
REMARK   34  A    between atoms: _84  and  _85
REMARK   35  A    between atoms: _88  and  _90
REMARK   36  A    between atoms: _90  and  _91
REMARK   37  A    between atoms: _90  and  _93
REMARK   38  A    between atoms: _93  and  _94
REMARK   39  A    between atoms: _94  and  _95
REMARK   40  A    between atoms: _95  and  _96
REMARK   41  A    between atoms: _96  and  _97
REMARK   42  A    between atoms: _101  and  _103
REMARK   43  A    between atoms: _103  and  _104
REMARK   44  A    between atoms: _103  and  _106
REMARK   45  A    between atoms: _106  and  _107
REMARK   46  A    between atoms: _110  and  _112
REMARK   47  A    between atoms: _112  and  _113
REMARK   48  A    between atoms: _112  and  _115
REMARK   49  A    between atoms: _115  and  _116
REMARK   50  A    between atoms: _118  and  _120
REMARK   51  A    between atoms: _120  and  _121
REMARK   52  A    between atoms: _120  and  _123
REMARK   53  A    between atoms: _123  and  _124
REMARK   54  A    between atoms: _124  and  _234
REMARK   55  A    between atoms: _125  and  _127
REMARK   56  A    between atoms: _127  and  _128
REMARK   57  A    between atoms: _127  and  _130
REMARK   58  A    between atoms: _130  and  _131
REMARK   59  A    between atoms: _131  and  _132
REMARK   60  A    between atoms: _137  and  _139
REMARK   61  A    between atoms: _139  and  _140
REMARK   62  A    between atoms: _142  and  _144
REMARK   63  A    between atoms: _144  and  _145
REMARK   64  A    between atoms: _144  and  _147
REMARK   65  A    between atoms: _147  and  _148
REMARK   66  A    between atoms: _151  and  _153
REMARK   67  A    between atoms: _153  and  _154
REMARK   68  A    between atoms: _153  and  _156
REMARK   69  A    between atoms: _156  and  _157
REMARK   70  A    between atoms: _159  and  _161
REMARK   71  A    between atoms: _161  and  _162
REMARK   72  A    between atoms: _164  and  _166
REMARK   73  A    between atoms: _166  and  _167
REMARK   74  A    between atoms: _169  and  _171
REMARK   75  A    between atoms: _171  and  _172
REMARK   76  A    between atoms: _171  and  _174
REMARK   77  A    between atoms: _174  and  _175
REMARK   78  A    between atoms: _178  and  _180
REMARK   79  A    between atoms: _180  and  _181
REMARK   80  A    between atoms: _180  and  _183
REMARK   81  A    between atoms: _186  and  _188
REMARK   82  A    between atoms: _188  and  _189
REMARK   83  A    between atoms: _188  and  _191
REMARK   84  A    between atoms: _191  and  _192
REMARK   85  A    between atoms: _194  and  _196
REMARK   86  A    between atoms: _196  and  _197
REMARK   87  A    between atoms: _196  and  _199
REMARK   88  A    between atoms: _199  and  _200
REMARK   89  A    between atoms: _210  and  _212
REMARK   90  A    between atoms: _212  and  _213
REMARK   91  A    between atoms: _215  and  _217
REMARK   92  A    between atoms: _217  and  _218
REMARK   93  A    between atoms: _217  and  _220
REMARK   94  A    between atoms: _220  and  _221
REMARK   95  A    between atoms: _223  and  _225
REMARK   96  A    between atoms: _225  and  _226
REMARK   97  A    between atoms: _228  and  _230
REMARK   98  A    between atoms: _230  and  _231
REMARK   99  A    between atoms: _230  and  _233
REMARK  100  A    between atoms: _233  and  _234
REMARK  101  A    between atoms: _235  and  _237
REMARK  102  A    between atoms: _237  and  _238
REMARK  103  A    between atoms: _241  and  _243
REMARK  104  A    between atoms: _243  and  _244
REMARK  105  A    between atoms: _243  and  _246
REMARK  106  A    between atoms: _246  and  _247
REMARK  107  A    between atoms: _247  and  _248
REMARK  108  A    between atoms: _253  and  _255
REMARK  109  A    between atoms: _255  and  _256
REMARK  110  A    between atoms: _255  and  _258
REMARK  111  A    between atoms: _258  and  _259
REMARK  112  A    between atoms: _259  and  _260
REMARK  113  A    between atoms: _260  and  _261
REMARK  114  A    between atoms: _261  and  _262
REMARK  115  A    between atoms: _267  and  _268
REMARK  116  A    between atoms: _273  and  _275
REMARK  117  A    between atoms: _275  and  _276
REMARK  118  A    between atoms: _278  and  _280
REMARK  119  A    between atoms: _280  and  _281
REMARK  120  A    between atoms: _280  and  _283
REMARK  121  A    between atoms: _286  and  _288
REMARK  122  A    between atoms: _288  and  _289
REMARK  123  A    between atoms: _288  and  _291
REMARK  124  A    between atoms: _291  and  _292
REMARK  125  A    between atoms: _297  and  _298
REMARK                            x       y       z     vdW  Elec       q    Type
REMARK                         _______ _______ _______ _____ _____    ______ ____
ROOT
ATOM      1  O   HOH     1      29.164  14.394  24.636  0.00  0.00    +0.000 OA
ENDROOT
TORSDOF 0
