REMARK  Name = ../refined-set-2016/2v8w/2v8w_pocket.pdb
REMARK  133 active torsions:
REMARK  status: ('A' for Active; 'I' for Inactive)
REMARK    1  A    between atoms: _1  and  _3
REMARK    2  A    between atoms: _3  and  _4
REMARK    3  A    between atoms: _3  and  _6
REMARK    4  A    between atoms: _6  and  _7
REMARK    5  A    between atoms: _13  and  _15
REMARK    6  A    between atoms: _15  and  _16
REMARK    7  A    between atoms: _15  and  _18
REMARK    8  A    between atoms: _18  and  _19
REMARK    9  A    between atoms: _24  and  _26
REMARK   10  A    between atoms: _26  and  _27
REMARK   11  A    between atoms: _26  and  _29
REMARK   12  A    between atoms: _29  and  _30
REMARK   13  A    between atoms: _33  and  _35
REMARK   14  A    between atoms: _35  and  _36
REMARK   15  A    between atoms: _35  and  _38
REMARK   16  A    between atoms: _38  and  _39
REMARK   17  A    between atoms: _49  and  _51
REMARK   18  A    between atoms: _51  and  _52
REMARK   19  A    between atoms: _51  and  _54
REMARK   20  A    between atoms: _54  and  _55
REMARK   21  A    between atoms: _55  and  _56
REMARK   22  A    between atoms: _61  and  _63
REMARK   23  A    between atoms: _63  and  _64
REMARK   24  A    between atoms: _63  and  _66
REMARK   25  A    between atoms: _66  and  _67
REMARK   26  A    between atoms: _72  and  _74
REMARK   27  A    between atoms: _74  and  _75
REMARK   28  A    between atoms: _74  and  _77
REMARK   29  A    between atoms: _77  and  _78
REMARK   30  A    between atoms: _81  and  _83
REMARK   31  A    between atoms: _83  and  _84
REMARK   32  A    between atoms: _86  and  _88
REMARK   33  A    between atoms: _88  and  _89
REMARK   34  A    between atoms: _88  and  _91
REMARK   35  A    between atoms: _93  and  _95
REMARK   36  A    between atoms: _95  and  _96
REMARK   37  A    between atoms: _95  and  _98
REMARK   38  A    between atoms: _98  and  _99
REMARK   39  A    between atoms: _102  and  _104
REMARK   40  A    between atoms: _104  and  _105
REMARK   41  A    between atoms: _104  and  _107
REMARK   42  A    between atoms: _107  and  _108
REMARK   43  A    between atoms: _110  and  _112
REMARK   44  A    between atoms: _112  and  _113
REMARK   45  A    between atoms: _112  and  _115
REMARK   46  A    between atoms: _115  and  _116
REMARK   47  A    between atoms: _122  and  _124
REMARK   48  A    between atoms: _124  and  _125
REMARK   49  A    between atoms: _124  and  _127
REMARK   50  A    between atoms: _127  and  _128
REMARK   51  A    between atoms: _128  and  _129
REMARK   52  A    between atoms: _133  and  _134
REMARK   53  A    between atoms: _139  and  _141
REMARK   54  A    between atoms: _141  and  _142
REMARK   55  A    between atoms: _141  and  _144
REMARK   56  A    between atoms: _144  and  _145
REMARK   57  A    between atoms: _145  and  _146
REMARK   58  A    between atoms: _148  and  _150
REMARK   59  A    between atoms: _150  and  _151
REMARK   60  A    between atoms: _150  and  _153
REMARK   61  A    between atoms: _153  and  _154
REMARK   62  A    between atoms: _164  and  _166
REMARK   63  A    between atoms: _166  and  _167
REMARK   64  A    between atoms: _166  and  _169
REMARK   65  A    between atoms: _169  and  _170
REMARK   66  A    between atoms: _170  and  _171
REMARK   67  A    between atoms: _174  and  _176
REMARK   68  A    between atoms: _176  and  _177
REMARK   69  A    between atoms: _176  and  _179
REMARK   70  A    between atoms: _179  and  _180
REMARK   71  A    between atoms: _183  and  _185
REMARK   72  A    between atoms: _185  and  _186
REMARK   73  A    between atoms: _185  and  _188
REMARK   74  A    between atoms: _188  and  _189
REMARK   75  A    between atoms: _194  and  _196
REMARK   76  A    between atoms: _196  and  _197
REMARK   77  A    between atoms: _196  and  _199
REMARK   78  A    between atoms: _199  and  _200
REMARK   79  A    between atoms: _200  and  _201
REMARK   80  A    between atoms: _201  and  _202
REMARK   81  A    between atoms: _211  and  _213
REMARK   82  A    between atoms: _213  and  _214
REMARK   83  A    between atoms: _213  and  _216
REMARK   84  A    between atoms: _216  and  _217
REMARK   85  A    between atoms: _220  and  _222
REMARK   86  A    between atoms: _222  and  _223
REMARK   87  A    between atoms: _222  and  _225
REMARK   88  A    between atoms: _228  and  _230
REMARK   89  A    between atoms: _230  and  _231
REMARK   90  A    between atoms: _230  and  _233
REMARK   91  A    between atoms: _233  and  _234
REMARK   92  A    between atoms: _241  and  _242
REMARK   93  A    between atoms: _241  and  _244
REMARK   94  A    between atoms: _247  and  _249
REMARK   95  A    between atoms: _249  and  _250
REMARK   96  A    between atoms: _249  and  _252
REMARK   97  A    between atoms: _252  and  _253
REMARK   98  A    between atoms: _253  and  _254
REMARK   99  A    between atoms: _254  and  _255
REMARK  100  A    between atoms: _264  and  _266
REMARK  101  A    between atoms: _266  and  _267
REMARK  102  A    between atoms: _270  and  _272
REMARK  103  A    between atoms: _272  and  _273
REMARK  104  A    between atoms: _272  and  _275
REMARK  105  A    between atoms: _275  and  _276
REMARK  106  A    between atoms: _276  and  _277
REMARK  107  A    between atoms: _277  and  _278
REMARK  108  A    between atoms: _278  and  _279
REMARK  109  A    between atoms: _283  and  _285
REMARK  110  A    between atoms: _285  and  _286
REMARK  111  A    between atoms: _288  and  _290
REMARK  112  A    between atoms: _290  and  _291
REMARK  113  A    between atoms: _290  and  _293
REMARK  114  A    between atoms: _293  and  _294
REMARK  115  A    between atoms: _294  and  _295
REMARK  116  A    between atoms: _295  and  _296
REMARK  117  A    between atoms: _296  and  _297
REMARK  118  A    between atoms: _301  and  _303
REMARK  119  A    between atoms: _303  and  _304
REMARK  120  A    between atoms: _303  and  _306
REMARK  121  A    between atoms: _306  and  _307
REMARK  122  A    between atoms: _317  and  _319
REMARK  123  A    between atoms: _319  and  _320
REMARK  124  A    between atoms: _319  and  _322
REMARK  125  A    between atoms: _322  and  _323
REMARK  126  A    between atoms: _328  and  _330
REMARK  127  A    between atoms: _330  and  _331
REMARK  128  A    between atoms: _330  and  _333
REMARK  129  A    between atoms: _333  and  _334
REMARK  130  A    between atoms: _337  and  _339
REMARK  131  A    between atoms: _339  and  _340
REMARK  132  A    between atoms: _339  and  _342
REMARK  133  A    between atoms: _342  and  _343
REMARK                            x       y       z     vdW  Elec       q    Type
REMARK                         _______ _______ _______ _____ _____    ______ ____
ROOT
ATOM      1  CB  PHE A   1      27.405  12.059  62.098  0.00  0.00    +0.051 C 
ENDROOT
BRANCH   1   2
ATOM      2  CG  PHE A   1      28.445  10.994  62.349  0.00  0.00    -0.020 A 
ATOM      3  CD2 PHE A   1      29.528  11.243  63.198  0.00  0.00    -0.004 A 
ATOM      4  CE2 PHE A   1      30.488  10.253  63.449  0.00  0.00    -0.000 A 
ATOM      5  CZ  PHE A   1      30.378   8.986  62.818  0.00  0.00    -0.000 A 
ATOM      6  CE1 PHE A   1      29.298   8.724  61.942  0.00  0.00    -0.000 A 
ATOM      7  CD1 PHE A   1      28.336   9.719  61.724  0.00  0.00    -0.004 A 
ENDBRANCH   1   2
BRANCH   1   8
ATOM      8  CA  PHE A   1      26.272  12.064  63.123  0.00  0.00    +0.137 C 
BRANCH   8   9
ATOM      9  N   PHE A   1      25.273  13.058  62.771  0.00  0.00    -0.239 NA
ATOM     10  H   PHE A   1      25.578  14.009  62.565  0.00  0.00    +0.142 HD
ENDBRANCH   8   9
BRANCH   8  11
ATOM     11  C   PHE A   1      26.810  12.495  64.483  0.00  0.00    +0.224 C 
ATOM     12  O   PHE A   1      27.396  13.571  64.624  0.00  0.00    -0.287 OA
ENDBRANCH   8  11
ENDBRANCH   1   8
TORSDOF 4
REMARK  Name = ../refined-set-2016/2v8w/2v8w_pocket.pdb
REMARK  133 active torsions:
REMARK  status: ('A' for Active; 'I' for Inactive)
REMARK    1  A    between atoms: _1  and  _3
REMARK    2  A    between atoms: _3  and  _4
REMARK    3  A    between atoms: _3  and  _6
REMARK    4  A    between atoms: _6  and  _7
REMARK    5  A    between atoms: _13  and  _15
REMARK    6  A    between atoms: _15  and  _16
REMARK    7  A    between atoms: _15  and  _18
REMARK    8  A    between atoms: _18  and  _19
REMARK    9  A    between atoms: _24  and  _26
REMARK   10  A    between atoms: _26  and  _27
REMARK   11  A    between atoms: _26  and  _29
REMARK   12  A    between atoms: _29  and  _30
REMARK   13  A    between atoms: _33  and  _35
REMARK   14  A    between atoms: _35  and  _36
REMARK   15  A    between atoms: _35  and  _38
REMARK   16  A    between atoms: _38  and  _39
REMARK   17  A    between atoms: _49  and  _51
REMARK   18  A    between atoms: _51  and  _52
REMARK   19  A    between atoms: _51  and  _54
REMARK   20  A    between atoms: _54  and  _55
REMARK   21  A    between atoms: _55  and  _56
REMARK   22  A    between atoms: _61  and  _63
REMARK   23  A    between atoms: _63  and  _64
REMARK   24  A    between atoms: _63  and  _66
REMARK   25  A    between atoms: _66  and  _67
REMARK   26  A    between atoms: _72  and  _74
REMARK   27  A    between atoms: _74  and  _75
REMARK   28  A    between atoms: _74  and  _77
REMARK   29  A    between atoms: _77  and  _78
REMARK   30  A    between atoms: _81  and  _83
REMARK   31  A    between atoms: _83  and  _84
REMARK   32  A    between atoms: _86  and  _88
REMARK   33  A    between atoms: _88  and  _89
REMARK   34  A    between atoms: _88  and  _91
REMARK   35  A    between atoms: _93  and  _95
REMARK   36  A    between atoms: _95  and  _96
REMARK   37  A    between atoms: _95  and  _98
REMARK   38  A    between atoms: _98  and  _99
REMARK   39  A    between atoms: _102  and  _104
REMARK   40  A    between atoms: _104  and  _105
REMARK   41  A    between atoms: _104  and  _107
REMARK   42  A    between atoms: _107  and  _108
REMARK   43  A    between atoms: _110  and  _112
REMARK   44  A    between atoms: _112  and  _113
REMARK   45  A    between atoms: _112  and  _115
REMARK   46  A    between atoms: _115  and  _116
REMARK   47  A    between atoms: _122  and  _124
REMARK   48  A    between atoms: _124  and  _125
REMARK   49  A    between atoms: _124  and  _127
REMARK   50  A    between atoms: _127  and  _128
REMARK   51  A    between atoms: _128  and  _129
REMARK   52  A    between atoms: _133  and  _134
REMARK   53  A    between atoms: _139  and  _141
REMARK   54  A    between atoms: _141  and  _142
REMARK   55  A    between atoms: _141  and  _144
REMARK   56  A    between atoms: _144  and  _145
REMARK   57  A    between atoms: _145  and  _146
REMARK   58  A    between atoms: _148  and  _150
REMARK   59  A    between atoms: _150  and  _151
REMARK   60  A    between atoms: _150  and  _153
REMARK   61  A    between atoms: _153  and  _154
REMARK   62  A    between atoms: _164  and  _166
REMARK   63  A    between atoms: _166  and  _167
REMARK   64  A    between atoms: _166  and  _169
REMARK   65  A    between atoms: _169  and  _170
REMARK   66  A    between atoms: _170  and  _171
REMARK   67  A    between atoms: _174  and  _176
REMARK   68  A    between atoms: _176  and  _177
REMARK   69  A    between atoms: _176  and  _179
REMARK   70  A    between atoms: _179  and  _180
REMARK   71  A    between atoms: _183  and  _185
REMARK   72  A    between atoms: _185  and  _186
REMARK   73  A    between atoms: _185  and  _188
REMARK   74  A    between atoms: _188  and  _189
REMARK   75  A    between atoms: _194  and  _196
REMARK   76  A    between atoms: _196  and  _197
REMARK   77  A    between atoms: _196  and  _199
REMARK   78  A    between atoms: _199  and  _200
REMARK   79  A    between atoms: _200  and  _201
REMARK   80  A    between atoms: _201  and  _202
REMARK   81  A    between atoms: _211  and  _213
REMARK   82  A    between atoms: _213  and  _214
REMARK   83  A    between atoms: _213  and  _216
REMARK   84  A    between atoms: _216  and  _217
REMARK   85  A    between atoms: _220  and  _222
REMARK   86  A    between atoms: _222  and  _223
REMARK   87  A    between atoms: _222  and  _225
REMARK   88  A    between atoms: _228  and  _230
REMARK   89  A    between atoms: _230  and  _231
REMARK   90  A    between atoms: _230  and  _233
REMARK   91  A    between atoms: _233  and  _234
REMARK   92  A    between atoms: _241  and  _242
REMARK   93  A    between atoms: _241  and  _244
REMARK   94  A    between atoms: _247  and  _249
REMARK   95  A    between atoms: _249  and  _250
REMARK   96  A    between atoms: _249  and  _252
REMARK   97  A    between atoms: _252  and  _253
REMARK   98  A    between atoms: _253  and  _254
REMARK   99  A    between atoms: _254  and  _255
REMARK  100  A    between atoms: _264  and  _266
REMARK  101  A    between atoms: _266  and  _267
REMARK  102  A    between atoms: _270  and  _272
REMARK  103  A    between atoms: _272  and  _273
REMARK  104  A    between atoms: _272  and  _275
REMARK  105  A    between atoms: _275  and  _276
REMARK  106  A    between atoms: _276  and  _277
REMARK  107  A    between atoms: _277  and  _278
REMARK  108  A    between atoms: _278  and  _279
REMARK  109  A    between atoms: _283  and  _285
REMARK  110  A    between atoms: _285  and  _286
REMARK  111  A    between atoms: _288  and  _290
REMARK  112  A    between atoms: _290  and  _291
REMARK  113  A    between atoms: _290  and  _293
REMARK  114  A    between atoms: _293  and  _294
REMARK  115  A    between atoms: _294  and  _295
REMARK  116  A    between atoms: _295  and  _296
REMARK  117  A    between atoms: _296  and  _297
REMARK  118  A    between atoms: _301  and  _303
REMARK  119  A    between atoms: _303  and  _304
REMARK  120  A    between atoms: _303  and  _306
REMARK  121  A    between atoms: _306  and  _307
REMARK  122  A    between atoms: _317  and  _319
REMARK  123  A    between atoms: _319  and  _320
REMARK  124  A    between atoms: _319  and  _322
REMARK  125  A    between atoms: _322  and  _323
REMARK  126  A    between atoms: _328  and  _330
REMARK  127  A    between atoms: _330  and  _331
REMARK  128  A    between atoms: _330  and  _333
REMARK  129  A    between atoms: _333  and  _334
REMARK  130  A    between atoms: _337  and  _339
REMARK  131  A    between atoms: _339  and  _340
REMARK  132  A    between atoms: _339  and  _342
REMARK  133  A    between atoms: _342  and  _343
REMARK                            x       y       z     vdW  Elec       q    Type
REMARK                         _______ _______ _______ _____ _____    ______ ____
ROOT
ATOM      1  CB  ASN A   1      31.653  11.997  67.605  0.00  0.00    +0.110 C 
ENDROOT
BRANCH   1   2
ATOM      2  CG  ASN A   1      33.006  11.407  67.409  0.00  0.00    +0.221 C 
ATOM      3  ND2 ASN A   1      33.977  11.920  68.174  0.00  0.00    -0.329 N 
ATOM      4 HD21 ASN A   1      33.768  12.679  68.822  0.00  0.00    +0.145 HD
ATOM      5 HD22 ASN A   1      34.926  11.552  68.109  0.00  0.00    +0.145 HD
ATOM      6  OD1 ASN A   1      33.189  10.469  66.586  0.00  0.00    -0.275 OA
ENDBRANCH   1   2
BRANCH   1   7
ATOM      7  CA  ASN A   1      30.554  10.949  67.529  0.00  0.00    +0.142 C 
BRANCH   7   8
ATOM      8  N   ASN A   1      29.315  11.648  67.432  0.00  0.00    -0.239 NA
ATOM      9  H   ASN A   1      29.275  12.627  67.717  0.00  0.00    +0.142 HD
ENDBRANCH   7   8
BRANCH   7  10
ATOM     10  C   ASN A   1      30.599  10.001  68.748  0.00  0.00    +0.225 C 
ATOM     11  O   ASN A   1      30.304  10.396  69.885  0.00  0.00    -0.287 OA
ENDBRANCH   7  10
ENDBRANCH   1   7
TORSDOF 4
REMARK  Name = ../refined-set-2016/2v8w/2v8w_pocket.pdb
REMARK  133 active torsions:
REMARK  status: ('A' for Active; 'I' for Inactive)
REMARK    1  A    between atoms: _1  and  _3
REMARK    2  A    between atoms: _3  and  _4
REMARK    3  A    between atoms: _3  and  _6
REMARK    4  A    between atoms: _6  and  _7
REMARK    5  A    between atoms: _13  and  _15
REMARK    6  A    between atoms: _15  and  _16
REMARK    7  A    between atoms: _15  and  _18
REMARK    8  A    between atoms: _18  and  _19
REMARK    9  A    between atoms: _24  and  _26
REMARK   10  A    between atoms: _26  and  _27
REMARK   11  A    between atoms: _26  and  _29
REMARK   12  A    between atoms: _29  and  _30
REMARK   13  A    between atoms: _33  and  _35
REMARK   14  A    between atoms: _35  and  _36
REMARK   15  A    between atoms: _35  and  _38
REMARK   16  A    between atoms: _38  and  _39
REMARK   17  A    between atoms: _49  and  _51
REMARK   18  A    between atoms: _51  and  _52
REMARK   19  A    between atoms: _51  and  _54
REMARK   20  A    between atoms: _54  and  _55
REMARK   21  A    between atoms: _55  and  _56
REMARK   22  A    between atoms: _61  and  _63
REMARK   23  A    between atoms: _63  and  _64
REMARK   24  A    between atoms: _63  and  _66
REMARK   25  A    between atoms: _66  and  _67
REMARK   26  A    between atoms: _72  and  _74
REMARK   27  A    between atoms: _74  and  _75
REMARK   28  A    between atoms: _74  and  _77
REMARK   29  A    between atoms: _77  and  _78
REMARK   30  A    between atoms: _81  and  _83
REMARK   31  A    between atoms: _83  and  _84
REMARK   32  A    between atoms: _86  and  _88
REMARK   33  A    between atoms: _88  and  _89
REMARK   34  A    between atoms: _88  and  _91
REMARK   35  A    between atoms: _93  and  _95
REMARK   36  A    between atoms: _95  and  _96
REMARK   37  A    between atoms: _95  and  _98
REMARK   38  A    between atoms: _98  and  _99
REMARK   39  A    between atoms: _102  and  _104
REMARK   40  A    between atoms: _104  and  _105
REMARK   41  A    between atoms: _104  and  _107
REMARK   42  A    between atoms: _107  and  _108
REMARK   43  A    between atoms: _110  and  _112
REMARK   44  A    between atoms: _112  and  _113
REMARK   45  A    between atoms: _112  and  _115
REMARK   46  A    between atoms: _115  and  _116
REMARK   47  A    between atoms: _122  and  _124
REMARK   48  A    between atoms: _124  and  _125
REMARK   49  A    between atoms: _124  and  _127
REMARK   50  A    between atoms: _127  and  _128
REMARK   51  A    between atoms: _128  and  _129
REMARK   52  A    between atoms: _133  and  _134
REMARK   53  A    between atoms: _139  and  _141
REMARK   54  A    between atoms: _141  and  _142
REMARK   55  A    between atoms: _141  and  _144
REMARK   56  A    between atoms: _144  and  _145
REMARK   57  A    between atoms: _145  and  _146
REMARK   58  A    between atoms: _148  and  _150
REMARK   59  A    between atoms: _150  and  _151
REMARK   60  A    between atoms: _150  and  _153
REMARK   61  A    between atoms: _153  and  _154
REMARK   62  A    between atoms: _164  and  _166
REMARK   63  A    between atoms: _166  and  _167
REMARK   64  A    between atoms: _166  and  _169
REMARK   65  A    between atoms: _169  and  _170
REMARK   66  A    between atoms: _170  and  _171
REMARK   67  A    between atoms: _174  and  _176
REMARK   68  A    between atoms: _176  and  _177
REMARK   69  A    between atoms: _176  and  _179
REMARK   70  A    between atoms: _179  and  _180
REMARK   71  A    between atoms: _183  and  _185
REMARK   72  A    between atoms: _185  and  _186
REMARK   73  A    between atoms: _185  and  _188
REMARK   74  A    between atoms: _188  and  _189
REMARK   75  A    between atoms: _194  and  _196
REMARK   76  A    between atoms: _196  and  _197
REMARK   77  A    between atoms: _196  and  _199
REMARK   78  A    between atoms: _199  and  _200
REMARK   79  A    between atoms: _200  and  _201
REMARK   80  A    between atoms: _201  and  _202
REMARK   81  A    between atoms: _211  and  _213
REMARK   82  A    between atoms: _213  and  _214
REMARK   83  A    between atoms: _213  and  _216
REMARK   84  A    between atoms: _216  and  _217
REMARK   85  A    between atoms: _220  and  _222
REMARK   86  A    between atoms: _222  and  _223
REMARK   87  A    between atoms: _222  and  _225
REMARK   88  A    between atoms: _228  and  _230
REMARK   89  A    between atoms: _230  and  _231
REMARK   90  A    between atoms: _230  and  _233
REMARK   91  A    between atoms: _233  and  _234
REMARK   92  A    between atoms: _241  and  _242
REMARK   93  A    between atoms: _241  and  _244
REMARK   94  A    between atoms: _247  and  _249
REMARK   95  A    between atoms: _249  and  _250
REMARK   96  A    between atoms: _249  and  _252
REMARK   97  A    between atoms: _252  and  _253
REMARK   98  A    between atoms: _253  and  _254
REMARK   99  A    between atoms: _254  and  _255
REMARK  100  A    between atoms: _264  and  _266
REMARK  101  A    between atoms: _266  and  _267
REMARK  102  A    between atoms: _270  and  _272
REMARK  103  A    between atoms: _272  and  _273
REMARK  104  A    between atoms: _272  and  _275
REMARK  105  A    between atoms: _275  and  _276
REMARK  106  A    between atoms: _276  and  _277
REMARK  107  A    between atoms: _277  and  _278
REMARK  108  A    between atoms: _278  and  _279
REMARK  109  A    between atoms: _283  and  _285
REMARK  110  A    between atoms: _285  and  _286
REMARK  111  A    between atoms: _288  and  _290
REMARK  112  A    between atoms: _290  and  _291
REMARK  113  A    between atoms: _290  and  _293
REMARK  114  A    between atoms: _293  and  _294
REMARK  115  A    between atoms: _294  and  _295
REMARK  116  A    between atoms: _295  and  _296
REMARK  117  A    between atoms: _296  and  _297
REMARK  118  A    between atoms: _301  and  _303
REMARK  119  A    between atoms: _303  and  _304
REMARK  120  A    between atoms: _303  and  _306
REMARK  121  A    between atoms: _306  and  _307
REMARK  122  A    between atoms: _317  and  _319
REMARK  123  A    between atoms: _319  and  _320
REMARK  124  A    between atoms: _319  and  _322
REMARK  125  A    between atoms: _322  and  _323
REMARK  126  A    between atoms: _328  and  _330
REMARK  127  A    between atoms: _330  and  _331
REMARK  128  A    between atoms: _330  and  _333
REMARK  129  A    between atoms: _333  and  _334
REMARK  130  A    between atoms: _337  and  _339
REMARK  131  A    between atoms: _339  and  _340
REMARK  132  A    between atoms: _339  and  _342
REMARK  133  A    between atoms: _342  and  _343
REMARK                            x       y       z     vdW  Elec       q    Type
REMARK                         _______ _______ _______ _____ _____    ______ ____
ROOT
ATOM      1  CA  TRP A   2      30.347   4.834  61.161  0.00  0.00    +0.153 C 
ENDROOT
BRANCH   1   4
ATOM      2  C   THR A   1      30.146   3.109  62.853  0.00  0.00    +0.241 C 
ATOM      3  O   THR A   1      29.305   3.789  63.456  0.00  0.00    -0.274 OA
ATOM      4  N   TRP A   2      30.746   3.554  61.752  0.00  0.00    -0.297 N 
ATOM      5  H   TRP A   2      31.486   3.002  61.318  0.00  0.00    +0.150 HD
BRANCH   2   6
ATOM      6  CA  THR A   1      30.559   1.693  63.378  0.00  0.00    +0.172 C 
BRANCH   6   7
ATOM      7  N   THR A   1      30.165   1.466  64.770  0.00  0.00    -0.236 NA
ATOM      8  H   THR A   1      29.508   0.711  64.968  0.00  0.00    +0.142 HD
ENDBRANCH   6   7
BRANCH   6   9
ATOM      9  CB  THR A   1      29.960   0.567  62.470  0.00  0.00    +0.135 C 
ATOM     10  CG2 THR A   1      30.492  -0.795  62.893  0.00  0.00    +0.034 C 
BRANCH   9  11
ATOM     11  OG1 THR A   1      28.531   0.554  62.588  0.00  0.00    -0.383 OA
ATOM     12  HG1 THR A   1      28.171  -0.138  62.029  0.00  0.00    +0.210 HD
ENDBRANCH   9  11
ENDBRANCH   6   9
ENDBRANCH   2   6
ENDBRANCH   1   4
BRANCH   1  13
ATOM     13  C   TRP A   2      28.842   4.849  60.788  0.00  0.00    +0.241 C 
ATOM     14  O   TRP A   2      28.121   5.777  61.117  0.00  0.00    -0.273 OA
ATOM     15  N   GLN A   3      28.394   3.785  60.129  0.00  0.00    -0.298 N 
ATOM     16  H   GLN A   3      29.076   3.089  59.828  0.00  0.00    +0.150 HD
BRANCH  15  17
ATOM     17  CA  GLN A   3      26.984   3.546  59.806  0.00  0.00    +0.137 C 
BRANCH  17  18
ATOM     18  C   GLN A   3      26.017   3.766  60.935  0.00  0.00    +0.227 C 
ATOM     19  O   GLN A   3      24.940   4.337  60.728  0.00  0.00    -0.286 OA
ENDBRANCH  17  18
BRANCH  17  20
ATOM     20  CB  GLN A   3      26.797   2.111  59.317  0.00  0.00    +0.037 C 
BRANCH  20  21
ATOM     21  CG  GLN A   3      26.457   2.018  57.857  0.00  0.00    +0.087 C 
BRANCH  21  22
ATOM     22  CD  GLN A   3      27.495   2.641  56.957  0.00  0.00    +0.219 C 
ATOM     23  OE1 GLN A   3      28.630   2.142  56.816  0.00  0.00    -0.275 OA
ATOM     24  NE2 GLN A   3      27.106   3.724  56.313  0.00  0.00    -0.329 N 
ATOM     25 HE21 GLN A   3      26.168   4.096  56.461  0.00  0.00    +0.145 HD
ATOM     26 HE22 GLN A   3      27.743   4.190  55.667  0.00  0.00    +0.145 HD
ENDBRANCH  21  22
ENDBRANCH  20  21
ENDBRANCH  17  20
ENDBRANCH  15  17
ENDBRANCH   1  13
BRANCH   1  27
ATOM     27  CB  TRP A   2      31.232   5.177  59.967  0.00  0.00    +0.057 C 
BRANCH  27  28
ATOM     28  CG  TRP A   2      30.946   6.519  59.394  0.00  0.00    -0.002 A 
ATOM     29  CD1 TRP A   2      31.535   7.699  59.745  0.00  0.00    +0.068 A 
ATOM     30  NE1 TRP A   2      31.014   8.737  58.984  0.00  0.00    -0.352 N 
ATOM     31  HE1 TRP A   2      31.289   9.717  59.049  0.00  0.00    +0.166 HD
ATOM     32  CE2 TRP A   2      30.071   8.228  58.133  0.00  0.00    +0.056 A 
ATOM     33  CZ2 TRP A   2      29.292   8.866  57.176  0.00  0.00    +0.017 A 
ATOM     34  CH2 TRP A   2      28.430   8.098  56.441  0.00  0.00    +0.001 A 
ATOM     35  CZ3 TRP A   2      28.332   6.720  56.633  0.00  0.00    +0.000 A 
ATOM     36  CE3 TRP A   2      29.111   6.071  57.588  0.00  0.00    +0.001 A 
ATOM     37  CD2 TRP A   2      30.006   6.833  58.355  0.00  0.00    +0.013 A 
ENDBRANCH  27  28
ENDBRANCH   1  27
TORSDOF 13
REMARK  Name = ../refined-set-2016/2v8w/2v8w_pocket.pdb
REMARK  133 active torsions:
REMARK  status: ('A' for Active; 'I' for Inactive)
REMARK    1  A    between atoms: _1  and  _3
REMARK    2  A    between atoms: _3  and  _4
REMARK    3  A    between atoms: _3  and  _6
REMARK    4  A    between atoms: _6  and  _7
REMARK    5  A    between atoms: _13  and  _15
REMARK    6  A    between atoms: _15  and  _16
REMARK    7  A    between atoms: _15  and  _18
REMARK    8  A    between atoms: _18  and  _19
REMARK    9  A    between atoms: _24  and  _26
REMARK   10  A    between atoms: _26  and  _27
REMARK   11  A    between atoms: _26  and  _29
REMARK   12  A    between atoms: _29  and  _30
REMARK   13  A    between atoms: _33  and  _35
REMARK   14  A    between atoms: _35  and  _36
REMARK   15  A    between atoms: _35  and  _38
REMARK   16  A    between atoms: _38  and  _39
REMARK   17  A    between atoms: _49  and  _51
REMARK   18  A    between atoms: _51  and  _52
REMARK   19  A    between atoms: _51  and  _54
REMARK   20  A    between atoms: _54  and  _55
REMARK   21  A    between atoms: _55  and  _56
REMARK   22  A    between atoms: _61  and  _63
REMARK   23  A    between atoms: _63  and  _64
REMARK   24  A    between atoms: _63  and  _66
REMARK   25  A    between atoms: _66  and  _67
REMARK   26  A    between atoms: _72  and  _74
REMARK   27  A    between atoms: _74  and  _75
REMARK   28  A    between atoms: _74  and  _77
REMARK   29  A    between atoms: _77  and  _78
REMARK   30  A    between atoms: _81  and  _83
REMARK   31  A    between atoms: _83  and  _84
REMARK   32  A    between atoms: _86  and  _88
REMARK   33  A    between atoms: _88  and  _89
REMARK   34  A    between atoms: _88  and  _91
REMARK   35  A    between atoms: _93  and  _95
REMARK   36  A    between atoms: _95  and  _96
REMARK   37  A    between atoms: _95  and  _98
REMARK   38  A    between atoms: _98  and  _99
REMARK   39  A    between atoms: _102  and  _104
REMARK   40  A    between atoms: _104  and  _105
REMARK   41  A    between atoms: _104  and  _107
REMARK   42  A    between atoms: _107  and  _108
REMARK   43  A    between atoms: _110  and  _112
REMARK   44  A    between atoms: _112  and  _113
REMARK   45  A    between atoms: _112  and  _115
REMARK   46  A    between atoms: _115  and  _116
REMARK   47  A    between atoms: _122  and  _124
REMARK   48  A    between atoms: _124  and  _125
REMARK   49  A    between atoms: _124  and  _127
REMARK   50  A    between atoms: _127  and  _128
REMARK   51  A    between atoms: _128  and  _129
REMARK   52  A    between atoms: _133  and  _134
REMARK   53  A    between atoms: _139  and  _141
REMARK   54  A    between atoms: _141  and  _142
REMARK   55  A    between atoms: _141  and  _144
REMARK   56  A    between atoms: _144  and  _145
REMARK   57  A    between atoms: _145  and  _146
REMARK   58  A    between atoms: _148  and  _150
REMARK   59  A    between atoms: _150  and  _151
REMARK   60  A    between atoms: _150  and  _153
REMARK   61  A    between atoms: _153  and  _154
REMARK   62  A    between atoms: _164  and  _166
REMARK   63  A    between atoms: _166  and  _167
REMARK   64  A    between atoms: _166  and  _169
REMARK   65  A    between atoms: _169  and  _170
REMARK   66  A    between atoms: _170  and  _171
REMARK   67  A    between atoms: _174  and  _176
REMARK   68  A    between atoms: _176  and  _177
REMARK   69  A    between atoms: _176  and  _179
REMARK   70  A    between atoms: _179  and  _180
REMARK   71  A    between atoms: _183  and  _185
REMARK   72  A    between atoms: _185  and  _186
REMARK   73  A    between atoms: _185  and  _188
REMARK   74  A    between atoms: _188  and  _189
REMARK   75  A    between atoms: _194  and  _196
REMARK   76  A    between atoms: _196  and  _197
REMARK   77  A    between atoms: _196  and  _199
REMARK   78  A    between atoms: _199  and  _200
REMARK   79  A    between atoms: _200  and  _201
REMARK   80  A    between atoms: _201  and  _202
REMARK   81  A    between atoms: _211  and  _213
REMARK   82  A    between atoms: _213  and  _214
REMARK   83  A    between atoms: _213  and  _216
REMARK   84  A    between atoms: _216  and  _217
REMARK   85  A    between atoms: _220  and  _222
REMARK   86  A    between atoms: _222  and  _223
REMARK   87  A    between atoms: _222  and  _225
REMARK   88  A    between atoms: _228  and  _230
REMARK   89  A    between atoms: _230  and  _231
REMARK   90  A    between atoms: _230  and  _233
REMARK   91  A    between atoms: _233  and  _234
REMARK   92  A    between atoms: _241  and  _242
REMARK   93  A    between atoms: _241  and  _244
REMARK   94  A    between atoms: _247  and  _249
REMARK   95  A    between atoms: _249  and  _250
REMARK   96  A    between atoms: _249  and  _252
REMARK   97  A    between atoms: _252  and  _253
REMARK   98  A    between atoms: _253  and  _254
REMARK   99  A    between atoms: _254  and  _255
REMARK  100  A    between atoms: _264  and  _266
REMARK  101  A    between atoms: _266  and  _267
REMARK  102  A    between atoms: _270  and  _272
REMARK  103  A    between atoms: _272  and  _273
REMARK  104  A    between atoms: _272  and  _275
REMARK  105  A    between atoms: _275  and  _276
REMARK  106  A    between atoms: _276  and  _277
REMARK  107  A    between atoms: _277  and  _278
REMARK  108  A    between atoms: _278  and  _279
REMARK  109  A    between atoms: _283  and  _285
REMARK  110  A    between atoms: _285  and  _286
REMARK  111  A    between atoms: _288  and  _290
REMARK  112  A    between atoms: _290  and  _291
REMARK  113  A    between atoms: _290  and  _293
REMARK  114  A    between atoms: _293  and  _294
REMARK  115  A    between atoms: _294  and  _295
REMARK  116  A    between atoms: _295  and  _296
REMARK  117  A    between atoms: _296  and  _297
REMARK  118  A    between atoms: _301  and  _303
REMARK  119  A    between atoms: _303  and  _304
REMARK  120  A    between atoms: _303  and  _306
REMARK  121  A    between atoms: _306  and  _307
REMARK  122  A    between atoms: _317  and  _319
REMARK  123  A    between atoms: _319  and  _320
REMARK  124  A    between atoms: _319  and  _322
REMARK  125  A    between atoms: _322  and  _323
REMARK  126  A    between atoms: _328  and  _330
REMARK  127  A    between atoms: _330  and  _331
REMARK  128  A    between atoms: _330  and  _333
REMARK  129  A    between atoms: _333  and  _334
REMARK  130  A    between atoms: _337  and  _339
REMARK  131  A    between atoms: _339  and  _340
REMARK  132  A    between atoms: _339  and  _342
REMARK  133  A    between atoms: _342  and  _343
REMARK                            x       y       z     vdW  Elec       q    Type
REMARK                         _______ _______ _______ _____ _____    ______ ____
ROOT
ATOM      1  C   ASN A   1      25.557   7.784  63.703  0.00  0.00    +0.239 C 
ATOM      2  O   ASN A   1      25.395   8.901  64.202  0.00  0.00    -0.274 OA
ATOM      3  N   LEU A   2      24.937   7.394  62.606  0.00  0.00    -0.298 N 
ATOM      4  H   LEU A   2      24.965   6.405  62.358  0.00  0.00    +0.150 HD
ENDROOT
BRANCH   1   5
ATOM      5  CA  ASN A   1      26.472   6.721  64.347  0.00  0.00    +0.154 C 
BRANCH   5   6
ATOM      6  N   ASN A   1      26.411   5.394  63.713  0.00  0.00    -0.238 NA
ATOM      7  H   ASN A   1      27.093   5.162  62.991  0.00  0.00    +0.142 HD
ENDBRANCH   5   6
BRANCH   5   8
ATOM      8  CB  ASN A   1      27.921   7.212  64.359  0.00  0.00    +0.111 C 
BRANCH   8   9
ATOM      9  CG  ASN A   1      28.761   6.559  65.464  0.00  0.00    +0.221 C 
ATOM     10  OD1 ASN A   1      28.304   6.389  66.614  0.00  0.00    -0.275 OA
ATOM     11  ND2 ASN A   1      30.002   6.215  65.126  0.00  0.00    -0.329 N 
ATOM     12 HD21 ASN A   1      30.621   5.794  65.819  0.00  0.00    +0.145 HD
ATOM     13 HD22 ASN A   1      30.334   6.372  64.174  0.00  0.00    +0.145 HD
ENDBRANCH   8   9
ENDBRANCH   5   8
ENDBRANCH   1   5
BRANCH   3  14
ATOM     14  CA  LEU A   2      24.223   8.296  61.742  0.00  0.00    +0.137 C 
BRANCH  14  15
ATOM     15  C   LEU A   2      22.720   8.141  61.974  0.00  0.00    +0.227 C 
ATOM     16  O   LEU A   2      22.195   7.040  61.844  0.00  0.00    -0.286 OA
ENDBRANCH  14  15
BRANCH  14  17
ATOM     17  CB  LEU A   2      24.620   7.892  60.349  0.00  0.00    +0.028 C 
BRANCH  17  18
ATOM     18  CG  LEU A   2      24.505   8.693  59.095  0.00  0.00    +0.002 C 
ATOM     19  CD2 LEU A   2      24.959  10.116  59.298  0.00  0.00    +0.000 C 
ATOM     20  CD1 LEU A   2      25.329   7.917  58.051  0.00  0.00    +0.000 C 
ENDBRANCH  17  18
ENDBRANCH  14  17
ENDBRANCH   3  14
TORSDOF 8
REMARK  Name = ../refined-set-2016/2v8w/2v8w_pocket.pdb
REMARK  133 active torsions:
REMARK  status: ('A' for Active; 'I' for Inactive)
REMARK    1  A    between atoms: _1  and  _3
REMARK    2  A    between atoms: _3  and  _4
REMARK    3  A    between atoms: _3  and  _6
REMARK    4  A    between atoms: _6  and  _7
REMARK    5  A    between atoms: _13  and  _15
REMARK    6  A    between atoms: _15  and  _16
REMARK    7  A    between atoms: _15  and  _18
REMARK    8  A    between atoms: _18  and  _19
REMARK    9  A    between atoms: _24  and  _26
REMARK   10  A    between atoms: _26  and  _27
REMARK   11  A    between atoms: _26  and  _29
REMARK   12  A    between atoms: _29  and  _30
REMARK   13  A    between atoms: _33  and  _35
REMARK   14  A    between atoms: _35  and  _36
REMARK   15  A    between atoms: _35  and  _38
REMARK   16  A    between atoms: _38  and  _39
REMARK   17  A    between atoms: _49  and  _51
REMARK   18  A    between atoms: _51  and  _52
REMARK   19  A    between atoms: _51  and  _54
REMARK   20  A    between atoms: _54  and  _55
REMARK   21  A    between atoms: _55  and  _56
REMARK   22  A    between atoms: _61  and  _63
REMARK   23  A    between atoms: _63  and  _64
REMARK   24  A    between atoms: _63  and  _66
REMARK   25  A    between atoms: _66  and  _67
REMARK   26  A    between atoms: _72  and  _74
REMARK   27  A    between atoms: _74  and  _75
REMARK   28  A    between atoms: _74  and  _77
REMARK   29  A    between atoms: _77  and  _78
REMARK   30  A    between atoms: _81  and  _83
REMARK   31  A    between atoms: _83  and  _84
REMARK   32  A    between atoms: _86  and  _88
REMARK   33  A    between atoms: _88  and  _89
REMARK   34  A    between atoms: _88  and  _91
REMARK   35  A    between atoms: _93  and  _95
REMARK   36  A    between atoms: _95  and  _96
REMARK   37  A    between atoms: _95  and  _98
REMARK   38  A    between atoms: _98  and  _99
REMARK   39  A    between atoms: _102  and  _104
REMARK   40  A    between atoms: _104  and  _105
REMARK   41  A    between atoms: _104  and  _107
REMARK   42  A    between atoms: _107  and  _108
REMARK   43  A    between atoms: _110  and  _112
REMARK   44  A    between atoms: _112  and  _113
REMARK   45  A    between atoms: _112  and  _115
REMARK   46  A    between atoms: _115  and  _116
REMARK   47  A    between atoms: _122  and  _124
REMARK   48  A    between atoms: _124  and  _125
REMARK   49  A    between atoms: _124  and  _127
REMARK   50  A    between atoms: _127  and  _128
REMARK   51  A    between atoms: _128  and  _129
REMARK   52  A    between atoms: _133  and  _134
REMARK   53  A    between atoms: _139  and  _141
REMARK   54  A    between atoms: _141  and  _142
REMARK   55  A    between atoms: _141  and  _144
REMARK   56  A    between atoms: _144  and  _145
REMARK   57  A    between atoms: _145  and  _146
REMARK   58  A    between atoms: _148  and  _150
REMARK   59  A    between atoms: _150  and  _151
REMARK   60  A    between atoms: _150  and  _153
REMARK   61  A    between atoms: _153  and  _154
REMARK   62  A    between atoms: _164  and  _166
REMARK   63  A    between atoms: _166  and  _167
REMARK   64  A    between atoms: _166  and  _169
REMARK   65  A    between atoms: _169  and  _170
REMARK   66  A    between atoms: _170  and  _171
REMARK   67  A    between atoms: _174  and  _176
REMARK   68  A    between atoms: _176  and  _177
REMARK   69  A    between atoms: _176  and  _179
REMARK   70  A    between atoms: _179  and  _180
REMARK   71  A    between atoms: _183  and  _185
REMARK   72  A    between atoms: _185  and  _186
REMARK   73  A    between atoms: _185  and  _188
REMARK   74  A    between atoms: _188  and  _189
REMARK   75  A    between atoms: _194  and  _196
REMARK   76  A    between atoms: _196  and  _197
REMARK   77  A    between atoms: _196  and  _199
REMARK   78  A    between atoms: _199  and  _200
REMARK   79  A    between atoms: _200  and  _201
REMARK   80  A    between atoms: _201  and  _202
REMARK   81  A    between atoms: _211  and  _213
REMARK   82  A    between atoms: _213  and  _214
REMARK   83  A    between atoms: _213  and  _216
REMARK   84  A    between atoms: _216  and  _217
REMARK   85  A    between atoms: _220  and  _222
REMARK   86  A    between atoms: _222  and  _223
REMARK   87  A    between atoms: _222  and  _225
REMARK   88  A    between atoms: _228  and  _230
REMARK   89  A    between atoms: _230  and  _231
REMARK   90  A    between atoms: _230  and  _233
REMARK   91  A    between atoms: _233  and  _234
REMARK   92  A    between atoms: _241  and  _242
REMARK   93  A    between atoms: _241  and  _244
REMARK   94  A    between atoms: _247  and  _249
REMARK   95  A    between atoms: _249  and  _250
REMARK   96  A    between atoms: _249  and  _252
REMARK   97  A    between atoms: _252  and  _253
REMARK   98  A    between atoms: _253  and  _254
REMARK   99  A    between atoms: _254  and  _255
REMARK  100  A    between atoms: _264  and  _266
REMARK  101  A    between atoms: _266  and  _267
REMARK  102  A    between atoms: _270  and  _272
REMARK  103  A    between atoms: _272  and  _273
REMARK  104  A    between atoms: _272  and  _275
REMARK  105  A    between atoms: _275  and  _276
REMARK  106  A    between atoms: _276  and  _277
REMARK  107  A    between atoms: _277  and  _278
REMARK  108  A    between atoms: _278  and  _279
REMARK  109  A    between atoms: _283  and  _285
REMARK  110  A    between atoms: _285  and  _286
REMARK  111  A    between atoms: _288  and  _290
REMARK  112  A    between atoms: _290  and  _291
REMARK  113  A    between atoms: _290  and  _293
REMARK  114  A    between atoms: _293  and  _294
REMARK  115  A    between atoms: _294  and  _295
REMARK  116  A    between atoms: _295  and  _296
REMARK  117  A    between atoms: _296  and  _297
REMARK  118  A    between atoms: _301  and  _303
REMARK  119  A    between atoms: _303  and  _304
REMARK  120  A    between atoms: _303  and  _306
REMARK  121  A    between atoms: _306  and  _307
REMARK  122  A    between atoms: _317  and  _319
REMARK  123  A    between atoms: _319  and  _320
REMARK  124  A    between atoms: _319  and  _322
REMARK  125  A    between atoms: _322  and  _323
REMARK  126  A    between atoms: _328  and  _330
REMARK  127  A    between atoms: _330  and  _331
REMARK  128  A    between atoms: _330  and  _333
REMARK  129  A    between atoms: _333  and  _334
REMARK  130  A    between atoms: _337  and  _339
REMARK  131  A    between atoms: _339  and  _340
REMARK  132  A    between atoms: _339  and  _342
REMARK  133  A    between atoms: _342  and  _343
REMARK                            x       y       z     vdW  Elec       q    Type
REMARK                         _______ _______ _______ _____ _____    ______ ____
ROOT
ATOM      1  C   CYS A   2      29.658  16.127  63.249  0.00  0.00    +0.242 C 
ATOM      2  O   CYS A   2      30.506  16.833  62.738  0.00  0.00    -0.273 OA
ATOM      3  N   ASP A   3      28.582  15.684  62.589  0.00  0.00    -0.298 N 
ATOM      4  H   ASP A   3      27.971  15.017  63.061  0.00  0.00    +0.150 HD
ENDROOT
BRANCH   1   5
ATOM      5  CA  CYS A   2      29.838  15.629  64.679  0.00  0.00    +0.160 C 
BRANCH   5   7
ATOM      6  C   GLY A   1      31.986  14.453  64.843  0.00  0.00    +0.240 C 
ATOM      7  N   CYS A   2      31.246  15.529  65.104  0.00  0.00    -0.296 N 
ATOM      8  H   CYS A   2      31.666  16.307  65.613  0.00  0.00    +0.150 HD
ATOM      9  O   GLY A   1      31.524  13.448  64.344  0.00  0.00    -0.274 OA
BRANCH   6  10
ATOM     10  CA  GLY A   1      33.459  14.520  65.190  0.00  0.00    +0.169 C 
BRANCH  10  11
ATOM     11  N   GLY A   1      33.907  15.858  65.529  0.00  0.00    -0.236 NA
ATOM     12  H   GLY A   1      34.068  16.526  64.776  0.00  0.00    +0.142 HD
ENDBRANCH  10  11
ENDBRANCH   6  10
ENDBRANCH   5   7
BRANCH   5  13
ATOM     13  CB  CYS A   2      29.030  16.481  65.663  0.00  0.00    +0.098 C 
ATOM     14  SG  CYS A   2      28.991  15.701  67.303  0.00  0.00    -0.080 S 
ENDBRANCH   5  13
ENDBRANCH   1   5
BRANCH   3  15
ATOM     15  CA  ASP A   3      28.227  16.101  61.225  0.00  0.00    +0.148 C 
BRANCH  15  16
ATOM     16  C   ASP A   3      26.741  16.355  61.150  0.00  0.00    +0.227 C 
ATOM     17  O   ASP A   3      25.979  15.696  61.823  0.00  0.00    -0.286 OA
ENDBRANCH  15  16
BRANCH  15  18
ATOM     18  CB  ASP A   3      28.497  15.030  60.153  0.00  0.00    +0.142 C 
BRANCH  18  19
ATOM     19  CG  ASP A   3      29.890  14.405  60.231  0.00  0.00    +0.367 C 
ATOM     20  OD2 ASP A   3      30.891  15.117  60.375  0.00  0.00    -0.246 OA
ATOM     21  OD1 ASP A   3      29.987  13.170  60.093  0.00  0.00    -0.246 OA
ENDBRANCH  18  19
ENDBRANCH  15  18
ENDBRANCH   3  15
TORSDOF 9
REMARK  Name = ../refined-set-2016/2v8w/2v8w_pocket.pdb
REMARK  133 active torsions:
REMARK  status: ('A' for Active; 'I' for Inactive)
REMARK    1  A    between atoms: _1  and  _3
REMARK    2  A    between atoms: _3  and  _4
REMARK    3  A    between atoms: _3  and  _6
REMARK    4  A    between atoms: _6  and  _7
REMARK    5  A    between atoms: _13  and  _15
REMARK    6  A    between atoms: _15  and  _16
REMARK    7  A    between atoms: _15  and  _18
REMARK    8  A    between atoms: _18  and  _19
REMARK    9  A    between atoms: _24  and  _26
REMARK   10  A    between atoms: _26  and  _27
REMARK   11  A    between atoms: _26  and  _29
REMARK   12  A    between atoms: _29  and  _30
REMARK   13  A    between atoms: _33  and  _35
REMARK   14  A    between atoms: _35  and  _36
REMARK   15  A    between atoms: _35  and  _38
REMARK   16  A    between atoms: _38  and  _39
REMARK   17  A    between atoms: _49  and  _51
REMARK   18  A    between atoms: _51  and  _52
REMARK   19  A    between atoms: _51  and  _54
REMARK   20  A    between atoms: _54  and  _55
REMARK   21  A    between atoms: _55  and  _56
REMARK   22  A    between atoms: _61  and  _63
REMARK   23  A    between atoms: _63  and  _64
REMARK   24  A    between atoms: _63  and  _66
REMARK   25  A    between atoms: _66  and  _67
REMARK   26  A    between atoms: _72  and  _74
REMARK   27  A    between atoms: _74  and  _75
REMARK   28  A    between atoms: _74  and  _77
REMARK   29  A    between atoms: _77  and  _78
REMARK   30  A    between atoms: _81  and  _83
REMARK   31  A    between atoms: _83  and  _84
REMARK   32  A    between atoms: _86  and  _88
REMARK   33  A    between atoms: _88  and  _89
REMARK   34  A    between atoms: _88  and  _91
REMARK   35  A    between atoms: _93  and  _95
REMARK   36  A    between atoms: _95  and  _96
REMARK   37  A    between atoms: _95  and  _98
REMARK   38  A    between atoms: _98  and  _99
REMARK   39  A    between atoms: _102  and  _104
REMARK   40  A    between atoms: _104  and  _105
REMARK   41  A    between atoms: _104  and  _107
REMARK   42  A    between atoms: _107  and  _108
REMARK   43  A    between atoms: _110  and  _112
REMARK   44  A    between atoms: _112  and  _113
REMARK   45  A    between atoms: _112  and  _115
REMARK   46  A    between atoms: _115  and  _116
REMARK   47  A    between atoms: _122  and  _124
REMARK   48  A    between atoms: _124  and  _125
REMARK   49  A    between atoms: _124  and  _127
REMARK   50  A    between atoms: _127  and  _128
REMARK   51  A    between atoms: _128  and  _129
REMARK   52  A    between atoms: _133  and  _134
REMARK   53  A    between atoms: _139  and  _141
REMARK   54  A    between atoms: _141  and  _142
REMARK   55  A    between atoms: _141  and  _144
REMARK   56  A    between atoms: _144  and  _145
REMARK   57  A    between atoms: _145  and  _146
REMARK   58  A    between atoms: _148  and  _150
REMARK   59  A    between atoms: _150  and  _151
REMARK   60  A    between atoms: _150  and  _153
REMARK   61  A    between atoms: _153  and  _154
REMARK   62  A    between atoms: _164  and  _166
REMARK   63  A    between atoms: _166  and  _167
REMARK   64  A    between atoms: _166  and  _169
REMARK   65  A    between atoms: _169  and  _170
REMARK   66  A    between atoms: _170  and  _171
REMARK   67  A    between atoms: _174  and  _176
REMARK   68  A    between atoms: _176  and  _177
REMARK   69  A    between atoms: _176  and  _179
REMARK   70  A    between atoms: _179  and  _180
REMARK   71  A    between atoms: _183  and  _185
REMARK   72  A    between atoms: _185  and  _186
REMARK   73  A    between atoms: _185  and  _188
REMARK   74  A    between atoms: _188  and  _189
REMARK   75  A    between atoms: _194  and  _196
REMARK   76  A    between atoms: _196  and  _197
REMARK   77  A    between atoms: _196  and  _199
REMARK   78  A    between atoms: _199  and  _200
REMARK   79  A    between atoms: _200  and  _201
REMARK   80  A    between atoms: _201  and  _202
REMARK   81  A    between atoms: _211  and  _213
REMARK   82  A    between atoms: _213  and  _214
REMARK   83  A    between atoms: _213  and  _216
REMARK   84  A    between atoms: _216  and  _217
REMARK   85  A    between atoms: _220  and  _222
REMARK   86  A    between atoms: _222  and  _223
REMARK   87  A    between atoms: _222  and  _225
REMARK   88  A    between atoms: _228  and  _230
REMARK   89  A    between atoms: _230  and  _231
REMARK   90  A    between atoms: _230  and  _233
REMARK   91  A    between atoms: _233  and  _234
REMARK   92  A    between atoms: _241  and  _242
REMARK   93  A    between atoms: _241  and  _244
REMARK   94  A    between atoms: _247  and  _249
REMARK   95  A    between atoms: _249  and  _250
REMARK   96  A    between atoms: _249  and  _252
REMARK   97  A    between atoms: _252  and  _253
REMARK   98  A    between atoms: _253  and  _254
REMARK   99  A    between atoms: _254  and  _255
REMARK  100  A    between atoms: _264  and  _266
REMARK  101  A    between atoms: _266  and  _267
REMARK  102  A    between atoms: _270  and  _272
REMARK  103  A    between atoms: _272  and  _273
REMARK  104  A    between atoms: _272  and  _275
REMARK  105  A    between atoms: _275  and  _276
REMARK  106  A    between atoms: _276  and  _277
REMARK  107  A    between atoms: _277  and  _278
REMARK  108  A    between atoms: _278  and  _279
REMARK  109  A    between atoms: _283  and  _285
REMARK  110  A    between atoms: _285  and  _286
REMARK  111  A    between atoms: _288  and  _290
REMARK  112  A    between atoms: _290  and  _291
REMARK  113  A    between atoms: _290  and  _293
REMARK  114  A    between atoms: _293  and  _294
REMARK  115  A    between atoms: _294  and  _295
REMARK  116  A    between atoms: _295  and  _296
REMARK  117  A    between atoms: _296  and  _297
REMARK  118  A    between atoms: _301  and  _303
REMARK  119  A    between atoms: _303  and  _304
REMARK  120  A    between atoms: _303  and  _306
REMARK  121  A    between atoms: _306  and  _307
REMARK  122  A    between atoms: _317  and  _319
REMARK  123  A    between atoms: _319  and  _320
REMARK  124  A    between atoms: _319  and  _322
REMARK  125  A    between atoms: _322  and  _323
REMARK  126  A    between atoms: _328  and  _330
REMARK  127  A    between atoms: _330  and  _331
REMARK  128  A    between atoms: _330  and  _333
REMARK  129  A    between atoms: _333  and  _334
REMARK  130  A    between atoms: _337  and  _339
REMARK  131  A    between atoms: _339  and  _340
REMARK  132  A    between atoms: _339  and  _342
REMARK  133  A    between atoms: _342  and  _343
REMARK                            x       y       z     vdW  Elec       q    Type
REMARK                         _______ _______ _______ _____ _____    ______ ____
ROOT
ATOM      1  CA  SER A   1      23.818  16.113  56.353  0.00  0.00    +0.163 C 
ENDROOT
BRANCH   1   2
ATOM      2  N   SER A   1      23.964  16.440  57.768  0.00  0.00    -0.237 NA
ATOM      3  H   SER A   1      23.205  16.187  58.401  0.00  0.00    +0.142 HD
ENDBRANCH   1   2
BRANCH   1   4
ATOM      4  C   SER A   1      22.386  16.403  55.953  0.00  0.00    +0.227 C 
ATOM      5  O   SER A   1      21.447  15.912  56.582  0.00  0.00    -0.287 OA
ENDBRANCH   1   4
BRANCH   1   6
ATOM      6  CB  SER A   1      24.069  14.607  56.118  0.00  0.00    +0.162 C 
BRANCH   6   7
ATOM      7  OG  SER A   1      25.379  14.261  56.561  0.00  0.00    -0.380 OA
ATOM      8  H   SER A   1      25.460  14.455  57.498  0.00  0.00    +0.211 HD
ENDBRANCH   6   7
ENDBRANCH   1   6
TORSDOF 4
REMARK  Name = ../refined-set-2016/2v8w/2v8w_pocket.pdb
REMARK  133 active torsions:
REMARK  status: ('A' for Active; 'I' for Inactive)
REMARK    1  A    between atoms: _1  and  _3
REMARK    2  A    between atoms: _3  and  _4
REMARK    3  A    between atoms: _3  and  _6
REMARK    4  A    between atoms: _6  and  _7
REMARK    5  A    between atoms: _13  and  _15
REMARK    6  A    between atoms: _15  and  _16
REMARK    7  A    between atoms: _15  and  _18
REMARK    8  A    between atoms: _18  and  _19
REMARK    9  A    between atoms: _24  and  _26
REMARK   10  A    between atoms: _26  and  _27
REMARK   11  A    between atoms: _26  and  _29
REMARK   12  A    between atoms: _29  and  _30
REMARK   13  A    between atoms: _33  and  _35
REMARK   14  A    between atoms: _35  and  _36
REMARK   15  A    between atoms: _35  and  _38
REMARK   16  A    between atoms: _38  and  _39
REMARK   17  A    between atoms: _49  and  _51
REMARK   18  A    between atoms: _51  and  _52
REMARK   19  A    between atoms: _51  and  _54
REMARK   20  A    between atoms: _54  and  _55
REMARK   21  A    between atoms: _55  and  _56
REMARK   22  A    between atoms: _61  and  _63
REMARK   23  A    between atoms: _63  and  _64
REMARK   24  A    between atoms: _63  and  _66
REMARK   25  A    between atoms: _66  and  _67
REMARK   26  A    between atoms: _72  and  _74
REMARK   27  A    between atoms: _74  and  _75
REMARK   28  A    between atoms: _74  and  _77
REMARK   29  A    between atoms: _77  and  _78
REMARK   30  A    between atoms: _81  and  _83
REMARK   31  A    between atoms: _83  and  _84
REMARK   32  A    between atoms: _86  and  _88
REMARK   33  A    between atoms: _88  and  _89
REMARK   34  A    between atoms: _88  and  _91
REMARK   35  A    between atoms: _93  and  _95
REMARK   36  A    between atoms: _95  and  _96
REMARK   37  A    between atoms: _95  and  _98
REMARK   38  A    between atoms: _98  and  _99
REMARK   39  A    between atoms: _102  and  _104
REMARK   40  A    between atoms: _104  and  _105
REMARK   41  A    between atoms: _104  and  _107
REMARK   42  A    between atoms: _107  and  _108
REMARK   43  A    between atoms: _110  and  _112
REMARK   44  A    between atoms: _112  and  _113
REMARK   45  A    between atoms: _112  and  _115
REMARK   46  A    between atoms: _115  and  _116
REMARK   47  A    between atoms: _122  and  _124
REMARK   48  A    between atoms: _124  and  _125
REMARK   49  A    between atoms: _124  and  _127
REMARK   50  A    between atoms: _127  and  _128
REMARK   51  A    between atoms: _128  and  _129
REMARK   52  A    between atoms: _133  and  _134
REMARK   53  A    between atoms: _139  and  _141
REMARK   54  A    between atoms: _141  and  _142
REMARK   55  A    between atoms: _141  and  _144
REMARK   56  A    between atoms: _144  and  _145
REMARK   57  A    between atoms: _145  and  _146
REMARK   58  A    between atoms: _148  and  _150
REMARK   59  A    between atoms: _150  and  _151
REMARK   60  A    between atoms: _150  and  _153
REMARK   61  A    between atoms: _153  and  _154
REMARK   62  A    between atoms: _164  and  _166
REMARK   63  A    between atoms: _166  and  _167
REMARK   64  A    between atoms: _166  and  _169
REMARK   65  A    between atoms: _169  and  _170
REMARK   66  A    between atoms: _170  and  _171
REMARK   67  A    between atoms: _174  and  _176
REMARK   68  A    between atoms: _176  and  _177
REMARK   69  A    between atoms: _176  and  _179
REMARK   70  A    between atoms: _179  and  _180
REMARK   71  A    between atoms: _183  and  _185
REMARK   72  A    between atoms: _185  and  _186
REMARK   73  A    between atoms: _185  and  _188
REMARK   74  A    between atoms: _188  and  _189
REMARK   75  A    between atoms: _194  and  _196
REMARK   76  A    between atoms: _196  and  _197
REMARK   77  A    between atoms: _196  and  _199
REMARK   78  A    between atoms: _199  and  _200
REMARK   79  A    between atoms: _200  and  _201
REMARK   80  A    between atoms: _201  and  _202
REMARK   81  A    between atoms: _211  and  _213
REMARK   82  A    between atoms: _213  and  _214
REMARK   83  A    between atoms: _213  and  _216
REMARK   84  A    between atoms: _216  and  _217
REMARK   85  A    between atoms: _220  and  _222
REMARK   86  A    between atoms: _222  and  _223
REMARK   87  A    between atoms: _222  and  _225
REMARK   88  A    between atoms: _228  and  _230
REMARK   89  A    between atoms: _230  and  _231
REMARK   90  A    between atoms: _230  and  _233
REMARK   91  A    between atoms: _233  and  _234
REMARK   92  A    between atoms: _241  and  _242
REMARK   93  A    between atoms: _241  and  _244
REMARK   94  A    between atoms: _247  and  _249
REMARK   95  A    between atoms: _249  and  _250
REMARK   96  A    between atoms: _249  and  _252
REMARK   97  A    between atoms: _252  and  _253
REMARK   98  A    between atoms: _253  and  _254
REMARK   99  A    between atoms: _254  and  _255
REMARK  100  A    between atoms: _264  and  _266
REMARK  101  A    between atoms: _266  and  _267
REMARK  102  A    between atoms: _270  and  _272
REMARK  103  A    between atoms: _272  and  _273
REMARK  104  A    between atoms: _272  and  _275
REMARK  105  A    between atoms: _275  and  _276
REMARK  106  A    between atoms: _276  and  _277
REMARK  107  A    between atoms: _277  and  _278
REMARK  108  A    between atoms: _278  and  _279
REMARK  109  A    between atoms: _283  and  _285
REMARK  110  A    between atoms: _285  and  _286
REMARK  111  A    between atoms: _288  and  _290
REMARK  112  A    between atoms: _290  and  _291
REMARK  113  A    between atoms: _290  and  _293
REMARK  114  A    between atoms: _293  and  _294
REMARK  115  A    between atoms: _294  and  _295
REMARK  116  A    between atoms: _295  and  _296
REMARK  117  A    between atoms: _296  and  _297
REMARK  118  A    between atoms: _301  and  _303
REMARK  119  A    between atoms: _303  and  _304
REMARK  120  A    between atoms: _303  and  _306
REMARK  121  A    between atoms: _306  and  _307
REMARK  122  A    between atoms: _317  and  _319
REMARK  123  A    between atoms: _319  and  _320
REMARK  124  A    between atoms: _319  and  _322
REMARK  125  A    between atoms: _322  and  _323
REMARK  126  A    between atoms: _328  and  _330
REMARK  127  A    between atoms: _330  and  _331
REMARK  128  A    between atoms: _330  and  _333
REMARK  129  A    between atoms: _333  and  _334
REMARK  130  A    between atoms: _337  and  _339
REMARK  131  A    between atoms: _339  and  _340
REMARK  132  A    between atoms: _339  and  _342
REMARK  133  A    between atoms: _342  and  _343
REMARK                            x       y       z     vdW  Elec       q    Type
REMARK                         _______ _______ _______ _____ _____    ______ ____
ROOT
ATOM      1  CB  PHE A   1      20.675  13.450  51.767  0.00  0.00    +0.051 C 
ENDROOT
BRANCH   1   2
ATOM      2  CG  PHE A   1      22.164  13.464  51.533  0.00  0.00    -0.020 A 
ATOM      3  CD2 PHE A   1      23.018  14.042  52.482  0.00  0.00    -0.004 A 
ATOM      4  CE2 PHE A   1      24.412  14.145  52.237  0.00  0.00    -0.000 A 
ATOM      5  CZ  PHE A   1      24.950  13.637  51.032  0.00  0.00    -0.000 A 
ATOM      6  CE1 PHE A   1      24.095  13.072  50.067  0.00  0.00    -0.000 A 
ATOM      7  CD1 PHE A   1      22.709  12.990  50.328  0.00  0.00    -0.004 A 
ENDBRANCH   1   2
BRANCH   1   8
ATOM      8  CA  PHE A   1      20.026  14.847  51.563  0.00  0.00    +0.137 C 
BRANCH   8   9
ATOM      9  N   PHE A   1      20.031  15.648  52.800  0.00  0.00    -0.239 NA
ATOM     10  H   PHE A   1      19.382  15.398  53.546  0.00  0.00    +0.142 HD
ENDBRANCH   8   9
BRANCH   8  11
ATOM     11  C   PHE A   1      18.619  14.745  51.079  0.00  0.00    +0.224 C 
ATOM     12  O   PHE A   1      17.720  14.727  51.891  0.00  0.00    -0.287 OA
ENDBRANCH   8  11
ENDBRANCH   1   8
TORSDOF 4
REMARK  Name = ../refined-set-2016/2v8w/2v8w_pocket.pdb
REMARK  133 active torsions:
REMARK  status: ('A' for Active; 'I' for Inactive)
REMARK    1  A    between atoms: _1  and  _3
REMARK    2  A    between atoms: _3  and  _4
REMARK    3  A    between atoms: _3  and  _6
REMARK    4  A    between atoms: _6  and  _7
REMARK    5  A    between atoms: _13  and  _15
REMARK    6  A    between atoms: _15  and  _16
REMARK    7  A    between atoms: _15  and  _18
REMARK    8  A    between atoms: _18  and  _19
REMARK    9  A    between atoms: _24  and  _26
REMARK   10  A    between atoms: _26  and  _27
REMARK   11  A    between atoms: _26  and  _29
REMARK   12  A    between atoms: _29  and  _30
REMARK   13  A    between atoms: _33  and  _35
REMARK   14  A    between atoms: _35  and  _36
REMARK   15  A    between atoms: _35  and  _38
REMARK   16  A    between atoms: _38  and  _39
REMARK   17  A    between atoms: _49  and  _51
REMARK   18  A    between atoms: _51  and  _52
REMARK   19  A    between atoms: _51  and  _54
REMARK   20  A    between atoms: _54  and  _55
REMARK   21  A    between atoms: _55  and  _56
REMARK   22  A    between atoms: _61  and  _63
REMARK   23  A    between atoms: _63  and  _64
REMARK   24  A    between atoms: _63  and  _66
REMARK   25  A    between atoms: _66  and  _67
REMARK   26  A    between atoms: _72  and  _74
REMARK   27  A    between atoms: _74  and  _75
REMARK   28  A    between atoms: _74  and  _77
REMARK   29  A    between atoms: _77  and  _78
REMARK   30  A    between atoms: _81  and  _83
REMARK   31  A    between atoms: _83  and  _84
REMARK   32  A    between atoms: _86  and  _88
REMARK   33  A    between atoms: _88  and  _89
REMARK   34  A    between atoms: _88  and  _91
REMARK   35  A    between atoms: _93  and  _95
REMARK   36  A    between atoms: _95  and  _96
REMARK   37  A    between atoms: _95  and  _98
REMARK   38  A    between atoms: _98  and  _99
REMARK   39  A    between atoms: _102  and  _104
REMARK   40  A    between atoms: _104  and  _105
REMARK   41  A    between atoms: _104  and  _107
REMARK   42  A    between atoms: _107  and  _108
REMARK   43  A    between atoms: _110  and  _112
REMARK   44  A    between atoms: _112  and  _113
REMARK   45  A    between atoms: _112  and  _115
REMARK   46  A    between atoms: _115  and  _116
REMARK   47  A    between atoms: _122  and  _124
REMARK   48  A    between atoms: _124  and  _125
REMARK   49  A    between atoms: _124  and  _127
REMARK   50  A    between atoms: _127  and  _128
REMARK   51  A    between atoms: _128  and  _129
REMARK   52  A    between atoms: _133  and  _134
REMARK   53  A    between atoms: _139  and  _141
REMARK   54  A    between atoms: _141  and  _142
REMARK   55  A    between atoms: _141  and  _144
REMARK   56  A    between atoms: _144  and  _145
REMARK   57  A    between atoms: _145  and  _146
REMARK   58  A    between atoms: _148  and  _150
REMARK   59  A    between atoms: _150  and  _151
REMARK   60  A    between atoms: _150  and  _153
REMARK   61  A    between atoms: _153  and  _154
REMARK   62  A    between atoms: _164  and  _166
REMARK   63  A    between atoms: _166  and  _167
REMARK   64  A    between atoms: _166  and  _169
REMARK   65  A    between atoms: _169  and  _170
REMARK   66  A    between atoms: _170  and  _171
REMARK   67  A    between atoms: _174  and  _176
REMARK   68  A    between atoms: _176  and  _177
REMARK   69  A    between atoms: _176  and  _179
REMARK   70  A    between atoms: _179  and  _180
REMARK   71  A    between atoms: _183  and  _185
REMARK   72  A    between atoms: _185  and  _186
REMARK   73  A    between atoms: _185  and  _188
REMARK   74  A    between atoms: _188  and  _189
REMARK   75  A    between atoms: _194  and  _196
REMARK   76  A    between atoms: _196  and  _197
REMARK   77  A    between atoms: _196  and  _199
REMARK   78  A    between atoms: _199  and  _200
REMARK   79  A    between atoms: _200  and  _201
REMARK   80  A    between atoms: _201  and  _202
REMARK   81  A    between atoms: _211  and  _213
REMARK   82  A    between atoms: _213  and  _214
REMARK   83  A    between atoms: _213  and  _216
REMARK   84  A    between atoms: _216  and  _217
REMARK   85  A    between atoms: _220  and  _222
REMARK   86  A    between atoms: _222  and  _223
REMARK   87  A    between atoms: _222  and  _225
REMARK   88  A    between atoms: _228  and  _230
REMARK   89  A    between atoms: _230  and  _231
REMARK   90  A    between atoms: _230  and  _233
REMARK   91  A    between atoms: _233  and  _234
REMARK   92  A    between atoms: _241  and  _242
REMARK   93  A    between atoms: _241  and  _244
REMARK   94  A    between atoms: _247  and  _249
REMARK   95  A    between atoms: _249  and  _250
REMARK   96  A    between atoms: _249  and  _252
REMARK   97  A    between atoms: _252  and  _253
REMARK   98  A    between atoms: _253  and  _254
REMARK   99  A    between atoms: _254  and  _255
REMARK  100  A    between atoms: _264  and  _266
REMARK  101  A    between atoms: _266  and  _267
REMARK  102  A    between atoms: _270  and  _272
REMARK  103  A    between atoms: _272  and  _273
REMARK  104  A    between atoms: _272  and  _275
REMARK  105  A    between atoms: _275  and  _276
REMARK  106  A    between atoms: _276  and  _277
REMARK  107  A    between atoms: _277  and  _278
REMARK  108  A    between atoms: _278  and  _279
REMARK  109  A    between atoms: _283  and  _285
REMARK  110  A    between atoms: _285  and  _286
REMARK  111  A    between atoms: _288  and  _290
REMARK  112  A    between atoms: _290  and  _291
REMARK  113  A    between atoms: _290  and  _293
REMARK  114  A    between atoms: _293  and  _294
REMARK  115  A    between atoms: _294  and  _295
REMARK  116  A    between atoms: _295  and  _296
REMARK  117  A    between atoms: _296  and  _297
REMARK  118  A    between atoms: _301  and  _303
REMARK  119  A    between atoms: _303  and  _304
REMARK  120  A    between atoms: _303  and  _306
REMARK  121  A    between atoms: _306  and  _307
REMARK  122  A    between atoms: _317  and  _319
REMARK  123  A    between atoms: _319  and  _320
REMARK  124  A    between atoms: _319  and  _322
REMARK  125  A    between atoms: _322  and  _323
REMARK  126  A    between atoms: _328  and  _330
REMARK  127  A    between atoms: _330  and  _331
REMARK  128  A    between atoms: _330  and  _333
REMARK  129  A    between atoms: _333  and  _334
REMARK  130  A    between atoms: _337  and  _339
REMARK  131  A    between atoms: _339  and  _340
REMARK  132  A    between atoms: _339  and  _342
REMARK  133  A    between atoms: _342  and  _343
REMARK                            x       y       z     vdW  Elec       q    Type
REMARK                         _______ _______ _______ _____ _____    ______ ____
ROOT
ATOM      1  CA  TRP A   4      29.187   7.117  49.322  0.00  0.00    +0.153 C 
ENDROOT
BRANCH   1   2
ATOM      2  C   TRP A   4      28.523   5.968  48.608  0.00  0.00    +0.241 C 
ATOM      3  N   GLU A   5      28.246   4.902  49.346  0.00  0.00    -0.297 N 
ATOM      4  H   GLU A   5      28.404   4.969  50.351  0.00  0.00    +0.150 HD
ATOM      5  O   TRP A   4      28.324   6.037  47.425  0.00  0.00    -0.273 OA
BRANCH   3   6
ATOM      6  CA  GLU A   5      27.730   3.638  48.823  0.00  0.00    +0.149 C 
BRANCH   6   7
ATOM      7  C   GLU A   5      26.334   3.711  48.222  0.00  0.00    +0.241 C 
ATOM      8  N   ASP A   6      25.560   4.764  48.515  0.00  0.00    -0.298 N 
ATOM      9  H   ASP A   6      25.952   5.508  49.092  0.00  0.00    +0.150 HD
ATOM     10  O   GLU A   5      25.950   2.782  47.542  0.00  0.00    -0.273 OA
BRANCH   8  11
ATOM     11  CA  ASP A   6      24.166   4.901  48.044  0.00  0.00    +0.148 C 
BRANCH  11  12
ATOM     12  C   ASP A   6      24.108   4.974  46.521  0.00  0.00    +0.227 C 
ATOM     13  O   ASP A   6      24.944   5.604  45.904  0.00  0.00    -0.286 OA
ENDBRANCH  11  12
BRANCH  11  14
ATOM     14  CB  ASP A   6      23.514   6.148  48.667  0.00  0.00    +0.142 C 
BRANCH  14  15
ATOM     15  CG  ASP A   6      22.013   6.256  48.388  0.00  0.00    +0.367 C 
ATOM     16  OD2 ASP A   6      21.219   5.964  49.322  0.00  0.00    -0.246 OA
ATOM     17  OD1 ASP A   6      21.604   6.661  47.261  0.00  0.00    -0.246 OA
ENDBRANCH  14  15
ENDBRANCH  11  14
ENDBRANCH   8  11
ENDBRANCH   6   7
BRANCH   6  18
ATOM     18  CB  GLU A   5      27.686   2.597  49.959  0.00  0.00    +0.041 C 
BRANCH  18  19
ATOM     19  CG  GLU A   5      29.007   2.352  50.699  0.00  0.00    +0.116 C 
BRANCH  19  20
ATOM     20  CD  GLU A   5      29.184   3.213  51.973  0.00  0.00    +0.365 C 
ATOM     21  OE2 GLU A   5      29.496   2.615  53.026  0.00  0.00    -0.246 OA
ATOM     22  OE1 GLU A   5      29.030   4.461  51.930  0.00  0.00    -0.246 OA
ENDBRANCH  19  20
ENDBRANCH  18  19
ENDBRANCH   6  18
ENDBRANCH   3   6
ENDBRANCH   1   2
BRANCH   1  24
ATOM     23  C   MET A   3      27.285   7.652  50.868  0.00  0.00    +0.241 C 
ATOM     24  N   TRP A   4      28.581   7.427  50.641  0.00  0.00    -0.297 N 
ATOM     25  H   TRP A   4      29.209   7.472  51.443  0.00  0.00    +0.150 HD
ATOM     26  O   MET A   3      26.401   7.609  50.026  0.00  0.00    -0.273 OA
BRANCH  23  27
ATOM     27  CA  MET A   3      26.928   7.971  52.305  0.00  0.00    +0.149 C 
BRANCH  27  30
ATOM     28  C   PRO A   2      25.617   9.726  53.347  0.00  0.00    +0.241 C 
ATOM     29  O   PRO A   2      26.517   9.973  54.136  0.00  0.00    -0.273 OA
ATOM     30  N   MET A   3      25.736   8.819  52.403  0.00  0.00    -0.297 N 
ATOM     31  H   MET A   3      24.983   8.703  51.724  0.00  0.00    +0.150 HD
BRANCH  28  37
ATOM     32  C   GLU A   1      22.702   8.959  52.304  0.00  0.00    +0.241 C 
ATOM     33  N   PRO A   2      23.100   9.653  53.384  0.00  0.00    -0.272 N 
ATOM     34  CD  PRO A   2      22.417   9.671  54.685  0.00  0.00    +0.094 C 
ATOM     35  CG  PRO A   2      23.337  10.473  55.562  0.00  0.00    +0.024 C 
ATOM     36  CB  PRO A   2      24.178  11.296  54.682  0.00  0.00    +0.031 C 
ATOM     37  CA  PRO A   2      24.306  10.503  53.378  0.00  0.00    +0.152 C 
ATOM     38  O   GLU A   1      23.328   8.966  51.264  0.00  0.00    -0.273 OA
BRANCH  32  39
ATOM     39  CA  GLU A   1      21.395   8.203  52.406  0.00  0.00    +0.146 C 
BRANCH  39  40
ATOM     40  N   GLU A   1      20.705   8.283  51.154  0.00  0.00    -0.238 NA
ATOM     41  H   GLU A   1      20.851   7.562  50.448  0.00  0.00    +0.142 HD
ENDBRANCH  39  40
BRANCH  39  42
ATOM     42  CB  GLU A   1      21.584   6.738  52.784  0.00  0.00    +0.038 C 
BRANCH  42  43
ATOM     43  CG  GLU A   1      20.289   6.089  53.321  0.00  0.00    +0.116 C 
BRANCH  43  44
ATOM     44  CD  GLU A   1      20.532   4.688  53.842  0.00  0.00    +0.365 C 
ATOM     45  OE2 GLU A   1      19.663   4.113  54.542  0.00  0.00    -0.246 OA
ATOM     46  OE1 GLU A   1      21.614   4.154  53.558  0.00  0.00    -0.246 OA
ENDBRANCH  43  44
ENDBRANCH  42  43
ENDBRANCH  39  42
ENDBRANCH  32  39
ENDBRANCH  28  37
ENDBRANCH  27  30
BRANCH  27  47
ATOM     47  CB  MET A   3      26.758   6.674  53.123  0.00  0.00    +0.041 C 
BRANCH  47  48
ATOM     48  CG  MET A   3      25.670   5.732  52.631  0.00  0.00    +0.060 C 
BRANCH  48  49
ATOM     49  SD  MET A   3      25.354   4.507  53.901  0.00  0.00    -0.139 S 
ATOM     50  CE  MET A   3      25.146   5.542  55.333  0.00  0.00    +0.069 C 
ENDBRANCH  48  49
ENDBRANCH  47  48
ENDBRANCH  27  47
ENDBRANCH  23  27
ENDBRANCH   1  24
BRANCH   1  51
ATOM     51  CB  TRP A   4      30.665   6.695  49.450  0.00  0.00    +0.057 C 
BRANCH  51  52
ATOM     52  CG  TRP A   4      31.554   7.632  50.127  0.00  0.00    -0.002 A 
ATOM     53  CD2 TRP A   4      32.641   7.294  51.004  0.00  0.00    +0.013 A 
ATOM     54  CE3 TRP A   4      33.136   6.095  51.507  0.00  0.00    +0.001 A 
ATOM     55  CZ3 TRP A   4      34.220   6.134  52.406  0.00  0.00    +0.000 A 
ATOM     56  CH2 TRP A   4      34.809   7.359  52.788  0.00  0.00    +0.001 A 
ATOM     57  CZ2 TRP A   4      34.332   8.554  52.314  0.00  0.00    +0.017 A 
ATOM     58  CE2 TRP A   4      33.236   8.509  51.420  0.00  0.00    +0.056 A 
ATOM     59  NE1 TRP A   4      32.560   9.532  50.797  0.00  0.00    -0.352 N 
ATOM     60  HE1 TRP A   4      32.764  10.526  50.898  0.00  0.00    +0.166 HD
ATOM     61  CD1 TRP A   4      31.557   8.992  50.011  0.00  0.00    +0.068 A 
ENDBRANCH  51  52
ENDBRANCH   1  51
TORSDOF 24
REMARK  Name = ../refined-set-2016/2v8w/2v8w_pocket.pdb
REMARK  133 active torsions:
REMARK  status: ('A' for Active; 'I' for Inactive)
REMARK    1  A    between atoms: _1  and  _3
REMARK    2  A    between atoms: _3  and  _4
REMARK    3  A    between atoms: _3  and  _6
REMARK    4  A    between atoms: _6  and  _7
REMARK    5  A    between atoms: _13  and  _15
REMARK    6  A    between atoms: _15  and  _16
REMARK    7  A    between atoms: _15  and  _18
REMARK    8  A    between atoms: _18  and  _19
REMARK    9  A    between atoms: _24  and  _26
REMARK   10  A    between atoms: _26  and  _27
REMARK   11  A    between atoms: _26  and  _29
REMARK   12  A    between atoms: _29  and  _30
REMARK   13  A    between atoms: _33  and  _35
REMARK   14  A    between atoms: _35  and  _36
REMARK   15  A    between atoms: _35  and  _38
REMARK   16  A    between atoms: _38  and  _39
REMARK   17  A    between atoms: _49  and  _51
REMARK   18  A    between atoms: _51  and  _52
REMARK   19  A    between atoms: _51  and  _54
REMARK   20  A    between atoms: _54  and  _55
REMARK   21  A    between atoms: _55  and  _56
REMARK   22  A    between atoms: _61  and  _63
REMARK   23  A    between atoms: _63  and  _64
REMARK   24  A    between atoms: _63  and  _66
REMARK   25  A    between atoms: _66  and  _67
REMARK   26  A    between atoms: _72  and  _74
REMARK   27  A    between atoms: _74  and  _75
REMARK   28  A    between atoms: _74  and  _77
REMARK   29  A    between atoms: _77  and  _78
REMARK   30  A    between atoms: _81  and  _83
REMARK   31  A    between atoms: _83  and  _84
REMARK   32  A    between atoms: _86  and  _88
REMARK   33  A    between atoms: _88  and  _89
REMARK   34  A    between atoms: _88  and  _91
REMARK   35  A    between atoms: _93  and  _95
REMARK   36  A    between atoms: _95  and  _96
REMARK   37  A    between atoms: _95  and  _98
REMARK   38  A    between atoms: _98  and  _99
REMARK   39  A    between atoms: _102  and  _104
REMARK   40  A    between atoms: _104  and  _105
REMARK   41  A    between atoms: _104  and  _107
REMARK   42  A    between atoms: _107  and  _108
REMARK   43  A    between atoms: _110  and  _112
REMARK   44  A    between atoms: _112  and  _113
REMARK   45  A    between atoms: _112  and  _115
REMARK   46  A    between atoms: _115  and  _116
REMARK   47  A    between atoms: _122  and  _124
REMARK   48  A    between atoms: _124  and  _125
REMARK   49  A    between atoms: _124  and  _127
REMARK   50  A    between atoms: _127  and  _128
REMARK   51  A    between atoms: _128  and  _129
REMARK   52  A    between atoms: _133  and  _134
REMARK   53  A    between atoms: _139  and  _141
REMARK   54  A    between atoms: _141  and  _142
REMARK   55  A    between atoms: _141  and  _144
REMARK   56  A    between atoms: _144  and  _145
REMARK   57  A    between atoms: _145  and  _146
REMARK   58  A    between atoms: _148  and  _150
REMARK   59  A    between atoms: _150  and  _151
REMARK   60  A    between atoms: _150  and  _153
REMARK   61  A    between atoms: _153  and  _154
REMARK   62  A    between atoms: _164  and  _166
REMARK   63  A    between atoms: _166  and  _167
REMARK   64  A    between atoms: _166  and  _169
REMARK   65  A    between atoms: _169  and  _170
REMARK   66  A    between atoms: _170  and  _171
REMARK   67  A    between atoms: _174  and  _176
REMARK   68  A    between atoms: _176  and  _177
REMARK   69  A    between atoms: _176  and  _179
REMARK   70  A    between atoms: _179  and  _180
REMARK   71  A    between atoms: _183  and  _185
REMARK   72  A    between atoms: _185  and  _186
REMARK   73  A    between atoms: _185  and  _188
REMARK   74  A    between atoms: _188  and  _189
REMARK   75  A    between atoms: _194  and  _196
REMARK   76  A    between atoms: _196  and  _197
REMARK   77  A    between atoms: _196  and  _199
REMARK   78  A    between atoms: _199  and  _200
REMARK   79  A    between atoms: _200  and  _201
REMARK   80  A    between atoms: _201  and  _202
REMARK   81  A    between atoms: _211  and  _213
REMARK   82  A    between atoms: _213  and  _214
REMARK   83  A    between atoms: _213  and  _216
REMARK   84  A    between atoms: _216  and  _217
REMARK   85  A    between atoms: _220  and  _222
REMARK   86  A    between atoms: _222  and  _223
REMARK   87  A    between atoms: _222  and  _225
REMARK   88  A    between atoms: _228  and  _230
REMARK   89  A    between atoms: _230  and  _231
REMARK   90  A    between atoms: _230  and  _233
REMARK   91  A    between atoms: _233  and  _234
REMARK   92  A    between atoms: _241  and  _242
REMARK   93  A    between atoms: _241  and  _244
REMARK   94  A    between atoms: _247  and  _249
REMARK   95  A    between atoms: _249  and  _250
REMARK   96  A    between atoms: _249  and  _252
REMARK   97  A    between atoms: _252  and  _253
REMARK   98  A    between atoms: _253  and  _254
REMARK   99  A    between atoms: _254  and  _255
REMARK  100  A    between atoms: _264  and  _266
REMARK  101  A    between atoms: _266  and  _267
REMARK  102  A    between atoms: _270  and  _272
REMARK  103  A    between atoms: _272  and  _273
REMARK  104  A    between atoms: _272  and  _275
REMARK  105  A    between atoms: _275  and  _276
REMARK  106  A    between atoms: _276  and  _277
REMARK  107  A    between atoms: _277  and  _278
REMARK  108  A    between atoms: _278  and  _279
REMARK  109  A    between atoms: _283  and  _285
REMARK  110  A    between atoms: _285  and  _286
REMARK  111  A    between atoms: _288  and  _290
REMARK  112  A    between atoms: _290  and  _291
REMARK  113  A    between atoms: _290  and  _293
REMARK  114  A    between atoms: _293  and  _294
REMARK  115  A    between atoms: _294  and  _295
REMARK  116  A    between atoms: _295  and  _296
REMARK  117  A    between atoms: _296  and  _297
REMARK  118  A    between atoms: _301  and  _303
REMARK  119  A    between atoms: _303  and  _304
REMARK  120  A    between atoms: _303  and  _306
REMARK  121  A    between atoms: _306  and  _307
REMARK  122  A    between atoms: _317  and  _319
REMARK  123  A    between atoms: _319  and  _320
REMARK  124  A    between atoms: _319  and  _322
REMARK  125  A    between atoms: _322  and  _323
REMARK  126  A    between atoms: _328  and  _330
REMARK  127  A    between atoms: _330  and  _331
REMARK  128  A    between atoms: _330  and  _333
REMARK  129  A    between atoms: _333  and  _334
REMARK  130  A    between atoms: _337  and  _339
REMARK  131  A    between atoms: _339  and  _340
REMARK  132  A    between atoms: _339  and  _342
REMARK  133  A    between atoms: _342  and  _343
REMARK                            x       y       z     vdW  Elec       q    Type
REMARK                         _______ _______ _______ _____ _____    ______ ____
ROOT
ATOM      1  CB  ASN A   1      26.335   8.939  46.924  0.00  0.00    +0.110 C 
ENDROOT
BRANCH   1   2
ATOM      2  CG  ASN A   1      25.404   9.907  47.540  0.00  0.00    +0.221 C 
ATOM      3  ND2 ASN A   1      24.795   9.532  48.613  0.00  0.00    -0.329 N 
ATOM      4 HD21 ASN A   1      24.137  10.162  49.072  0.00  0.00    +0.145 HD
ATOM      5 HD22 ASN A   1      24.971   8.606  49.002  0.00  0.00    +0.145 HD
ATOM      6  OD1 ASN A   1      25.233  10.989  47.038  0.00  0.00    -0.275 OA
ENDBRANCH   1   2
BRANCH   1   7
ATOM      7  CA  ASN A   1      26.153   8.844  45.395  0.00  0.00    +0.142 C 
BRANCH   7   8
ATOM      8  N   ASN A   1      24.858   8.227  45.050  0.00  0.00    -0.239 NA
ATOM      9  H   ASN A   1      24.591   7.358  45.513  0.00  0.00    +0.142 HD
ENDBRANCH   7   8
BRANCH   7  10
ATOM     10  C   ASN A   1      27.390   8.186  44.830  0.00  0.00    +0.225 C 
ATOM     11  O   ASN A   1      28.374   8.871  44.504  0.00  0.00    -0.287 OA
ENDBRANCH   7  10
ENDBRANCH   1   7
TORSDOF 4
REMARK  Name = ../refined-set-2016/2v8w/2v8w_pocket.pdb
REMARK  133 active torsions:
REMARK  status: ('A' for Active; 'I' for Inactive)
REMARK    1  A    between atoms: _1  and  _3
REMARK    2  A    between atoms: _3  and  _4
REMARK    3  A    between atoms: _3  and  _6
REMARK    4  A    between atoms: _6  and  _7
REMARK    5  A    between atoms: _13  and  _15
REMARK    6  A    between atoms: _15  and  _16
REMARK    7  A    between atoms: _15  and  _18
REMARK    8  A    between atoms: _18  and  _19
REMARK    9  A    between atoms: _24  and  _26
REMARK   10  A    between atoms: _26  and  _27
REMARK   11  A    between atoms: _26  and  _29
REMARK   12  A    between atoms: _29  and  _30
REMARK   13  A    between atoms: _33  and  _35
REMARK   14  A    between atoms: _35  and  _36
REMARK   15  A    between atoms: _35  and  _38
REMARK   16  A    between atoms: _38  and  _39
REMARK   17  A    between atoms: _49  and  _51
REMARK   18  A    between atoms: _51  and  _52
REMARK   19  A    between atoms: _51  and  _54
REMARK   20  A    between atoms: _54  and  _55
REMARK   21  A    between atoms: _55  and  _56
REMARK   22  A    between atoms: _61  and  _63
REMARK   23  A    between atoms: _63  and  _64
REMARK   24  A    between atoms: _63  and  _66
REMARK   25  A    between atoms: _66  and  _67
REMARK   26  A    between atoms: _72  and  _74
REMARK   27  A    between atoms: _74  and  _75
REMARK   28  A    between atoms: _74  and  _77
REMARK   29  A    between atoms: _77  and  _78
REMARK   30  A    between atoms: _81  and  _83
REMARK   31  A    between atoms: _83  and  _84
REMARK   32  A    between atoms: _86  and  _88
REMARK   33  A    between atoms: _88  and  _89
REMARK   34  A    between atoms: _88  and  _91
REMARK   35  A    between atoms: _93  and  _95
REMARK   36  A    between atoms: _95  and  _96
REMARK   37  A    between atoms: _95  and  _98
REMARK   38  A    between atoms: _98  and  _99
REMARK   39  A    between atoms: _102  and  _104
REMARK   40  A    between atoms: _104  and  _105
REMARK   41  A    between atoms: _104  and  _107
REMARK   42  A    between atoms: _107  and  _108
REMARK   43  A    between atoms: _110  and  _112
REMARK   44  A    between atoms: _112  and  _113
REMARK   45  A    between atoms: _112  and  _115
REMARK   46  A    between atoms: _115  and  _116
REMARK   47  A    between atoms: _122  and  _124
REMARK   48  A    between atoms: _124  and  _125
REMARK   49  A    between atoms: _124  and  _127
REMARK   50  A    between atoms: _127  and  _128
REMARK   51  A    between atoms: _128  and  _129
REMARK   52  A    between atoms: _133  and  _134
REMARK   53  A    between atoms: _139  and  _141
REMARK   54  A    between atoms: _141  and  _142
REMARK   55  A    between atoms: _141  and  _144
REMARK   56  A    between atoms: _144  and  _145
REMARK   57  A    between atoms: _145  and  _146
REMARK   58  A    between atoms: _148  and  _150
REMARK   59  A    between atoms: _150  and  _151
REMARK   60  A    between atoms: _150  and  _153
REMARK   61  A    between atoms: _153  and  _154
REMARK   62  A    between atoms: _164  and  _166
REMARK   63  A    between atoms: _166  and  _167
REMARK   64  A    between atoms: _166  and  _169
REMARK   65  A    between atoms: _169  and  _170
REMARK   66  A    between atoms: _170  and  _171
REMARK   67  A    between atoms: _174  and  _176
REMARK   68  A    between atoms: _176  and  _177
REMARK   69  A    between atoms: _176  and  _179
REMARK   70  A    between atoms: _179  and  _180
REMARK   71  A    between atoms: _183  and  _185
REMARK   72  A    between atoms: _185  and  _186
REMARK   73  A    between atoms: _185  and  _188
REMARK   74  A    between atoms: _188  and  _189
REMARK   75  A    between atoms: _194  and  _196
REMARK   76  A    between atoms: _196  and  _197
REMARK   77  A    between atoms: _196  and  _199
REMARK   78  A    between atoms: _199  and  _200
REMARK   79  A    between atoms: _200  and  _201
REMARK   80  A    between atoms: _201  and  _202
REMARK   81  A    between atoms: _211  and  _213
REMARK   82  A    between atoms: _213  and  _214
REMARK   83  A    between atoms: _213  and  _216
REMARK   84  A    between atoms: _216  and  _217
REMARK   85  A    between atoms: _220  and  _222
REMARK   86  A    between atoms: _222  and  _223
REMARK   87  A    between atoms: _222  and  _225
REMARK   88  A    between atoms: _228  and  _230
REMARK   89  A    between atoms: _230  and  _231
REMARK   90  A    between atoms: _230  and  _233
REMARK   91  A    between atoms: _233  and  _234
REMARK   92  A    between atoms: _241  and  _242
REMARK   93  A    between atoms: _241  and  _244
REMARK   94  A    between atoms: _247  and  _249
REMARK   95  A    between atoms: _249  and  _250
REMARK   96  A    between atoms: _249  and  _252
REMARK   97  A    between atoms: _252  and  _253
REMARK   98  A    between atoms: _253  and  _254
REMARK   99  A    between atoms: _254  and  _255
REMARK  100  A    between atoms: _264  and  _266
REMARK  101  A    between atoms: _266  and  _267
REMARK  102  A    between atoms: _270  and  _272
REMARK  103  A    between atoms: _272  and  _273
REMARK  104  A    between atoms: _272  and  _275
REMARK  105  A    between atoms: _275  and  _276
REMARK  106  A    between atoms: _276  and  _277
REMARK  107  A    between atoms: _277  and  _278
REMARK  108  A    between atoms: _278  and  _279
REMARK  109  A    between atoms: _283  and  _285
REMARK  110  A    between atoms: _285  and  _286
REMARK  111  A    between atoms: _288  and  _290
REMARK  112  A    between atoms: _290  and  _291
REMARK  113  A    between atoms: _290  and  _293
REMARK  114  A    between atoms: _293  and  _294
REMARK  115  A    between atoms: _294  and  _295
REMARK  116  A    between atoms: _295  and  _296
REMARK  117  A    between atoms: _296  and  _297
REMARK  118  A    between atoms: _301  and  _303
REMARK  119  A    between atoms: _303  and  _304
REMARK  120  A    between atoms: _303  and  _306
REMARK  121  A    between atoms: _306  and  _307
REMARK  122  A    between atoms: _317  and  _319
REMARK  123  A    between atoms: _319  and  _320
REMARK  124  A    between atoms: _319  and  _322
REMARK  125  A    between atoms: _322  and  _323
REMARK  126  A    between atoms: _328  and  _330
REMARK  127  A    between atoms: _330  and  _331
REMARK  128  A    between atoms: _330  and  _333
REMARK  129  A    between atoms: _333  and  _334
REMARK  130  A    between atoms: _337  and  _339
REMARK  131  A    between atoms: _339  and  _340
REMARK  132  A    between atoms: _339  and  _342
REMARK  133  A    between atoms: _342  and  _343
REMARK                            x       y       z     vdW  Elec       q    Type
REMARK                         _______ _______ _______ _____ _____    ______ ____
ROOT
ATOM      1  NE  ARG A   1      33.637  15.242  50.315  0.00  0.00    -0.265 N 
ATOM      2  CZ  ARG A   1      34.455  15.212  51.373  0.00  0.00    +0.342 C 
ATOM      3  NH2 ARG A   1      33.915  15.068  52.572  0.00  0.00    -0.292 N 
ATOM      4 HH21 ARG A   1      34.511  15.041  53.400  0.00  0.00    +0.255 HD
ATOM      5 HH22 ARG A   1      32.903  14.984  52.669  0.00  0.00    +0.255 HD
ATOM      6  NH1 ARG A   1      35.777  15.307  51.258  0.00  0.00    -0.292 N 
ATOM      7 HH11 ARG A   1      36.365  15.280  52.091  0.00  0.00    +0.255 HD
ATOM      8 HH12 ARG A   1      36.203  15.407  50.337  0.00  0.00    +0.255 HD
ATOM      9  HE  ARG A   1      32.638  15.158  50.501  0.00  0.00    +0.259 HD
ENDROOT
BRANCH   1  10
ATOM     10  CD  ARG A   1      34.035  15.382  48.937  0.00  0.00    +0.174 C 
BRANCH  10  11
ATOM     11  CG  ARG A   1      33.241  16.447  48.263  0.00  0.00    +0.045 C 
BRANCH  11  12
ATOM     12  CB  ARG A   1      31.873  16.045  47.763  0.00  0.00    +0.029 C 
BRANCH  12  13
ATOM     13  CA  ARG A   1      31.646  16.465  46.289  0.00  0.00    +0.133 C 
BRANCH  13  14
ATOM     14  N   ARG A   1      31.998  15.357  45.428  0.00  0.00    -0.239 NA
ATOM     15  H   ARG A   1      32.974  15.196  45.178  0.00  0.00    +0.142 HD
ENDBRANCH  13  14
BRANCH  13  16
ATOM     16  C   ARG A   1      32.484  17.709  45.943  0.00  0.00    +0.224 C 
ATOM     17  O   ARG A   1      33.644  17.584  45.577  0.00  0.00    -0.287 OA
ENDBRANCH  13  16
ENDBRANCH  12  13
ENDBRANCH  11  12
ENDBRANCH  10  11
ENDBRANCH   1  10
TORSDOF 6
REMARK  Name = ../refined-set-2016/2v8w/2v8w_pocket.pdb
REMARK  133 active torsions:
REMARK  status: ('A' for Active; 'I' for Inactive)
REMARK    1  A    between atoms: _1  and  _3
REMARK    2  A    between atoms: _3  and  _4
REMARK    3  A    between atoms: _3  and  _6
REMARK    4  A    between atoms: _6  and  _7
REMARK    5  A    between atoms: _13  and  _15
REMARK    6  A    between atoms: _15  and  _16
REMARK    7  A    between atoms: _15  and  _18
REMARK    8  A    between atoms: _18  and  _19
REMARK    9  A    between atoms: _24  and  _26
REMARK   10  A    between atoms: _26  and  _27
REMARK   11  A    between atoms: _26  and  _29
REMARK   12  A    between atoms: _29  and  _30
REMARK   13  A    between atoms: _33  and  _35
REMARK   14  A    between atoms: _35  and  _36
REMARK   15  A    between atoms: _35  and  _38
REMARK   16  A    between atoms: _38  and  _39
REMARK   17  A    between atoms: _49  and  _51
REMARK   18  A    between atoms: _51  and  _52
REMARK   19  A    between atoms: _51  and  _54
REMARK   20  A    between atoms: _54  and  _55
REMARK   21  A    between atoms: _55  and  _56
REMARK   22  A    between atoms: _61  and  _63
REMARK   23  A    between atoms: _63  and  _64
REMARK   24  A    between atoms: _63  and  _66
REMARK   25  A    between atoms: _66  and  _67
REMARK   26  A    between atoms: _72  and  _74
REMARK   27  A    between atoms: _74  and  _75
REMARK   28  A    between atoms: _74  and  _77
REMARK   29  A    between atoms: _77  and  _78
REMARK   30  A    between atoms: _81  and  _83
REMARK   31  A    between atoms: _83  and  _84
REMARK   32  A    between atoms: _86  and  _88
REMARK   33  A    between atoms: _88  and  _89
REMARK   34  A    between atoms: _88  and  _91
REMARK   35  A    between atoms: _93  and  _95
REMARK   36  A    between atoms: _95  and  _96
REMARK   37  A    between atoms: _95  and  _98
REMARK   38  A    between atoms: _98  and  _99
REMARK   39  A    between atoms: _102  and  _104
REMARK   40  A    between atoms: _104  and  _105
REMARK   41  A    between atoms: _104  and  _107
REMARK   42  A    between atoms: _107  and  _108
REMARK   43  A    between atoms: _110  and  _112
REMARK   44  A    between atoms: _112  and  _113
REMARK   45  A    between atoms: _112  and  _115
REMARK   46  A    between atoms: _115  and  _116
REMARK   47  A    between atoms: _122  and  _124
REMARK   48  A    between atoms: _124  and  _125
REMARK   49  A    between atoms: _124  and  _127
REMARK   50  A    between atoms: _127  and  _128
REMARK   51  A    between atoms: _128  and  _129
REMARK   52  A    between atoms: _133  and  _134
REMARK   53  A    between atoms: _139  and  _141
REMARK   54  A    between atoms: _141  and  _142
REMARK   55  A    between atoms: _141  and  _144
REMARK   56  A    between atoms: _144  and  _145
REMARK   57  A    between atoms: _145  and  _146
REMARK   58  A    between atoms: _148  and  _150
REMARK   59  A    between atoms: _150  and  _151
REMARK   60  A    between atoms: _150  and  _153
REMARK   61  A    between atoms: _153  and  _154
REMARK   62  A    between atoms: _164  and  _166
REMARK   63  A    between atoms: _166  and  _167
REMARK   64  A    between atoms: _166  and  _169
REMARK   65  A    between atoms: _169  and  _170
REMARK   66  A    between atoms: _170  and  _171
REMARK   67  A    between atoms: _174  and  _176
REMARK   68  A    between atoms: _176  and  _177
REMARK   69  A    between atoms: _176  and  _179
REMARK   70  A    between atoms: _179  and  _180
REMARK   71  A    between atoms: _183  and  _185
REMARK   72  A    between atoms: _185  and  _186
REMARK   73  A    between atoms: _185  and  _188
REMARK   74  A    between atoms: _188  and  _189
REMARK   75  A    between atoms: _194  and  _196
REMARK   76  A    between atoms: _196  and  _197
REMARK   77  A    between atoms: _196  and  _199
REMARK   78  A    between atoms: _199  and  _200
REMARK   79  A    between atoms: _200  and  _201
REMARK   80  A    between atoms: _201  and  _202
REMARK   81  A    between atoms: _211  and  _213
REMARK   82  A    between atoms: _213  and  _214
REMARK   83  A    between atoms: _213  and  _216
REMARK   84  A    between atoms: _216  and  _217
REMARK   85  A    between atoms: _220  and  _222
REMARK   86  A    between atoms: _222  and  _223
REMARK   87  A    between atoms: _222  and  _225
REMARK   88  A    between atoms: _228  and  _230
REMARK   89  A    between atoms: _230  and  _231
REMARK   90  A    between atoms: _230  and  _233
REMARK   91  A    between atoms: _233  and  _234
REMARK   92  A    between atoms: _241  and  _242
REMARK   93  A    between atoms: _241  and  _244
REMARK   94  A    between atoms: _247  and  _249
REMARK   95  A    between atoms: _249  and  _250
REMARK   96  A    between atoms: _249  and  _252
REMARK   97  A    between atoms: _252  and  _253
REMARK   98  A    between atoms: _253  and  _254
REMARK   99  A    between atoms: _254  and  _255
REMARK  100  A    between atoms: _264  and  _266
REMARK  101  A    between atoms: _266  and  _267
REMARK  102  A    between atoms: _270  and  _272
REMARK  103  A    between atoms: _272  and  _273
REMARK  104  A    between atoms: _272  and  _275
REMARK  105  A    between atoms: _275  and  _276
REMARK  106  A    between atoms: _276  and  _277
REMARK  107  A    between atoms: _277  and  _278
REMARK  108  A    between atoms: _278  and  _279
REMARK  109  A    between atoms: _283  and  _285
REMARK  110  A    between atoms: _285  and  _286
REMARK  111  A    between atoms: _288  and  _290
REMARK  112  A    between atoms: _290  and  _291
REMARK  113  A    between atoms: _290  and  _293
REMARK  114  A    between atoms: _293  and  _294
REMARK  115  A    between atoms: _294  and  _295
REMARK  116  A    between atoms: _295  and  _296
REMARK  117  A    between atoms: _296  and  _297
REMARK  118  A    between atoms: _301  and  _303
REMARK  119  A    between atoms: _303  and  _304
REMARK  120  A    between atoms: _303  and  _306
REMARK  121  A    between atoms: _306  and  _307
REMARK  122  A    between atoms: _317  and  _319
REMARK  123  A    between atoms: _319  and  _320
REMARK  124  A    between atoms: _319  and  _322
REMARK  125  A    between atoms: _322  and  _323
REMARK  126  A    between atoms: _328  and  _330
REMARK  127  A    between atoms: _330  and  _331
REMARK  128  A    between atoms: _330  and  _333
REMARK  129  A    between atoms: _333  and  _334
REMARK  130  A    between atoms: _337  and  _339
REMARK  131  A    between atoms: _339  and  _340
REMARK  132  A    between atoms: _339  and  _342
REMARK  133  A    between atoms: _342  and  _343
REMARK                            x       y       z     vdW  Elec       q    Type
REMARK                         _______ _______ _______ _____ _____    ______ ____
ROOT
ATOM      1  CA  LEU A   1      34.619  20.699  49.354  0.00  0.00    +0.133 C 
ENDROOT
BRANCH   1   2
ATOM      2  N   LEU A   1      34.193  20.595  47.976  0.00  0.00    -0.239 NA
ATOM      3  H   LEU A   1      34.897  20.603  47.238  0.00  0.00    +0.142 HD
ENDBRANCH   1   2
BRANCH   1   4
ATOM      4  C   LEU A   1      35.176  22.077  49.640  0.00  0.00    +0.224 C 
ATOM      5  O   LEU A   1      36.025  22.598  48.891  0.00  0.00    -0.287 OA
ENDBRANCH   1   4
BRANCH   1   6
ATOM      6  CB  LEU A   1      35.663  19.620  49.637  0.00  0.00    +0.025 C 
BRANCH   6   7
ATOM      7  CG  LEU A   1      36.127  19.129  51.016  0.00  0.00    +0.002 C 
ATOM      8  CD2 LEU A   1      35.100  19.348  52.159  0.00  0.00    +0.000 C 
ATOM      9  CD1 LEU A   1      37.506  19.651  51.373  0.00  0.00    +0.000 C 
ENDBRANCH   6   7
ENDBRANCH   1   6
TORSDOF 4
REMARK  Name = ../refined-set-2016/2v8w/2v8w_pocket.pdb
REMARK  133 active torsions:
REMARK  status: ('A' for Active; 'I' for Inactive)
REMARK    1  A    between atoms: _1  and  _3
REMARK    2  A    between atoms: _3  and  _4
REMARK    3  A    between atoms: _3  and  _6
REMARK    4  A    between atoms: _6  and  _7
REMARK    5  A    between atoms: _13  and  _15
REMARK    6  A    between atoms: _15  and  _16
REMARK    7  A    between atoms: _15  and  _18
REMARK    8  A    between atoms: _18  and  _19
REMARK    9  A    between atoms: _24  and  _26
REMARK   10  A    between atoms: _26  and  _27
REMARK   11  A    between atoms: _26  and  _29
REMARK   12  A    between atoms: _29  and  _30
REMARK   13  A    between atoms: _33  and  _35
REMARK   14  A    between atoms: _35  and  _36
REMARK   15  A    between atoms: _35  and  _38
REMARK   16  A    between atoms: _38  and  _39
REMARK   17  A    between atoms: _49  and  _51
REMARK   18  A    between atoms: _51  and  _52
REMARK   19  A    between atoms: _51  and  _54
REMARK   20  A    between atoms: _54  and  _55
REMARK   21  A    between atoms: _55  and  _56
REMARK   22  A    between atoms: _61  and  _63
REMARK   23  A    between atoms: _63  and  _64
REMARK   24  A    between atoms: _63  and  _66
REMARK   25  A    between atoms: _66  and  _67
REMARK   26  A    between atoms: _72  and  _74
REMARK   27  A    between atoms: _74  and  _75
REMARK   28  A    between atoms: _74  and  _77
REMARK   29  A    between atoms: _77  and  _78
REMARK   30  A    between atoms: _81  and  _83
REMARK   31  A    between atoms: _83  and  _84
REMARK   32  A    between atoms: _86  and  _88
REMARK   33  A    between atoms: _88  and  _89
REMARK   34  A    between atoms: _88  and  _91
REMARK   35  A    between atoms: _93  and  _95
REMARK   36  A    between atoms: _95  and  _96
REMARK   37  A    between atoms: _95  and  _98
REMARK   38  A    between atoms: _98  and  _99
REMARK   39  A    between atoms: _102  and  _104
REMARK   40  A    between atoms: _104  and  _105
REMARK   41  A    between atoms: _104  and  _107
REMARK   42  A    between atoms: _107  and  _108
REMARK   43  A    between atoms: _110  and  _112
REMARK   44  A    between atoms: _112  and  _113
REMARK   45  A    between atoms: _112  and  _115
REMARK   46  A    between atoms: _115  and  _116
REMARK   47  A    between atoms: _122  and  _124
REMARK   48  A    between atoms: _124  and  _125
REMARK   49  A    between atoms: _124  and  _127
REMARK   50  A    between atoms: _127  and  _128
REMARK   51  A    between atoms: _128  and  _129
REMARK   52  A    between atoms: _133  and  _134
REMARK   53  A    between atoms: _139  and  _141
REMARK   54  A    between atoms: _141  and  _142
REMARK   55  A    between atoms: _141  and  _144
REMARK   56  A    between atoms: _144  and  _145
REMARK   57  A    between atoms: _145  and  _146
REMARK   58  A    between atoms: _148  and  _150
REMARK   59  A    between atoms: _150  and  _151
REMARK   60  A    between atoms: _150  and  _153
REMARK   61  A    between atoms: _153  and  _154
REMARK   62  A    between atoms: _164  and  _166
REMARK   63  A    between atoms: _166  and  _167
REMARK   64  A    between atoms: _166  and  _169
REMARK   65  A    between atoms: _169  and  _170
REMARK   66  A    between atoms: _170  and  _171
REMARK   67  A    between atoms: _174  and  _176
REMARK   68  A    between atoms: _176  and  _177
REMARK   69  A    between atoms: _176  and  _179
REMARK   70  A    between atoms: _179  and  _180
REMARK   71  A    between atoms: _183  and  _185
REMARK   72  A    between atoms: _185  and  _186
REMARK   73  A    between atoms: _185  and  _188
REMARK   74  A    between atoms: _188  and  _189
REMARK   75  A    between atoms: _194  and  _196
REMARK   76  A    between atoms: _196  and  _197
REMARK   77  A    between atoms: _196  and  _199
REMARK   78  A    between atoms: _199  and  _200
REMARK   79  A    between atoms: _200  and  _201
REMARK   80  A    between atoms: _201  and  _202
REMARK   81  A    between atoms: _211  and  _213
REMARK   82  A    between atoms: _213  and  _214
REMARK   83  A    between atoms: _213  and  _216
REMARK   84  A    between atoms: _216  and  _217
REMARK   85  A    between atoms: _220  and  _222
REMARK   86  A    between atoms: _222  and  _223
REMARK   87  A    between atoms: _222  and  _225
REMARK   88  A    between atoms: _228  and  _230
REMARK   89  A    between atoms: _230  and  _231
REMARK   90  A    between atoms: _230  and  _233
REMARK   91  A    between atoms: _233  and  _234
REMARK   92  A    between atoms: _241  and  _242
REMARK   93  A    between atoms: _241  and  _244
REMARK   94  A    between atoms: _247  and  _249
REMARK   95  A    between atoms: _249  and  _250
REMARK   96  A    between atoms: _249  and  _252
REMARK   97  A    between atoms: _252  and  _253
REMARK   98  A    between atoms: _253  and  _254
REMARK   99  A    between atoms: _254  and  _255
REMARK  100  A    between atoms: _264  and  _266
REMARK  101  A    between atoms: _266  and  _267
REMARK  102  A    between atoms: _270  and  _272
REMARK  103  A    between atoms: _272  and  _273
REMARK  104  A    between atoms: _272  and  _275
REMARK  105  A    between atoms: _275  and  _276
REMARK  106  A    between atoms: _276  and  _277
REMARK  107  A    between atoms: _277  and  _278
REMARK  108  A    between atoms: _278  and  _279
REMARK  109  A    between atoms: _283  and  _285
REMARK  110  A    between atoms: _285  and  _286
REMARK  111  A    between atoms: _288  and  _290
REMARK  112  A    between atoms: _290  and  _291
REMARK  113  A    between atoms: _290  and  _293
REMARK  114  A    between atoms: _293  and  _294
REMARK  115  A    between atoms: _294  and  _295
REMARK  116  A    between atoms: _295  and  _296
REMARK  117  A    between atoms: _296  and  _297
REMARK  118  A    between atoms: _301  and  _303
REMARK  119  A    between atoms: _303  and  _304
REMARK  120  A    between atoms: _303  and  _306
REMARK  121  A    between atoms: _306  and  _307
REMARK  122  A    between atoms: _317  and  _319
REMARK  123  A    between atoms: _319  and  _320
REMARK  124  A    between atoms: _319  and  _322
REMARK  125  A    between atoms: _322  and  _323
REMARK  126  A    between atoms: _328  and  _330
REMARK  127  A    between atoms: _330  and  _331
REMARK  128  A    between atoms: _330  and  _333
REMARK  129  A    between atoms: _333  and  _334
REMARK  130  A    between atoms: _337  and  _339
REMARK  131  A    between atoms: _339  and  _340
REMARK  132  A    between atoms: _339  and  _342
REMARK  133  A    between atoms: _342  and  _343
REMARK                            x       y       z     vdW  Elec       q    Type
REMARK                         _______ _______ _______ _____ _____    ______ ____
ROOT
ATOM      1  CA  VAL A   1      27.413  17.615  54.579  0.00  0.00    +0.133 C 
ENDROOT
BRANCH   1   2
ATOM      2  CB  VAL A   1      28.294  16.370  54.369  0.00  0.00    +0.023 C 
ATOM      3  CG2 VAL A   1      28.876  15.872  55.725  0.00  0.00    +0.002 C 
ATOM      4  CG1 VAL A   1      27.500  15.278  53.621  0.00  0.00    +0.002 C 
ENDBRANCH   1   2
BRANCH   1   5
ATOM      5  N   VAL A   1      26.909  18.129  53.294  0.00  0.00    -0.239 NA
ATOM      6  H   VAL A   1      27.568  18.544  52.636  0.00  0.00    +0.142 HD
ENDBRANCH   1   5
BRANCH   1   7
ATOM      7  C   VAL A   1      28.260  18.702  55.224  0.00  0.00    +0.224 C 
ATOM      8  O   VAL A   1      29.022  19.389  54.532  0.00  0.00    -0.287 OA
ENDBRANCH   1   7
TORSDOF 3
REMARK  Name = ../refined-set-2016/2v8w/2v8w_pocket.pdb
REMARK  133 active torsions:
REMARK  status: ('A' for Active; 'I' for Inactive)
REMARK    1  A    between atoms: _1  and  _3
REMARK    2  A    between atoms: _3  and  _4
REMARK    3  A    between atoms: _3  and  _6
REMARK    4  A    between atoms: _6  and  _7
REMARK    5  A    between atoms: _13  and  _15
REMARK    6  A    between atoms: _15  and  _16
REMARK    7  A    between atoms: _15  and  _18
REMARK    8  A    between atoms: _18  and  _19
REMARK    9  A    between atoms: _24  and  _26
REMARK   10  A    between atoms: _26  and  _27
REMARK   11  A    between atoms: _26  and  _29
REMARK   12  A    between atoms: _29  and  _30
REMARK   13  A    between atoms: _33  and  _35
REMARK   14  A    between atoms: _35  and  _36
REMARK   15  A    between atoms: _35  and  _38
REMARK   16  A    between atoms: _38  and  _39
REMARK   17  A    between atoms: _49  and  _51
REMARK   18  A    between atoms: _51  and  _52
REMARK   19  A    between atoms: _51  and  _54
REMARK   20  A    between atoms: _54  and  _55
REMARK   21  A    between atoms: _55  and  _56
REMARK   22  A    between atoms: _61  and  _63
REMARK   23  A    between atoms: _63  and  _64
REMARK   24  A    between atoms: _63  and  _66
REMARK   25  A    between atoms: _66  and  _67
REMARK   26  A    between atoms: _72  and  _74
REMARK   27  A    between atoms: _74  and  _75
REMARK   28  A    between atoms: _74  and  _77
REMARK   29  A    between atoms: _77  and  _78
REMARK   30  A    between atoms: _81  and  _83
REMARK   31  A    between atoms: _83  and  _84
REMARK   32  A    between atoms: _86  and  _88
REMARK   33  A    between atoms: _88  and  _89
REMARK   34  A    between atoms: _88  and  _91
REMARK   35  A    between atoms: _93  and  _95
REMARK   36  A    between atoms: _95  and  _96
REMARK   37  A    between atoms: _95  and  _98
REMARK   38  A    between atoms: _98  and  _99
REMARK   39  A    between atoms: _102  and  _104
REMARK   40  A    between atoms: _104  and  _105
REMARK   41  A    between atoms: _104  and  _107
REMARK   42  A    between atoms: _107  and  _108
REMARK   43  A    between atoms: _110  and  _112
REMARK   44  A    between atoms: _112  and  _113
REMARK   45  A    between atoms: _112  and  _115
REMARK   46  A    between atoms: _115  and  _116
REMARK   47  A    between atoms: _122  and  _124
REMARK   48  A    between atoms: _124  and  _125
REMARK   49  A    between atoms: _124  and  _127
REMARK   50  A    between atoms: _127  and  _128
REMARK   51  A    between atoms: _128  and  _129
REMARK   52  A    between atoms: _133  and  _134
REMARK   53  A    between atoms: _139  and  _141
REMARK   54  A    between atoms: _141  and  _142
REMARK   55  A    between atoms: _141  and  _144
REMARK   56  A    between atoms: _144  and  _145
REMARK   57  A    between atoms: _145  and  _146
REMARK   58  A    between atoms: _148  and  _150
REMARK   59  A    between atoms: _150  and  _151
REMARK   60  A    between atoms: _150  and  _153
REMARK   61  A    between atoms: _153  and  _154
REMARK   62  A    between atoms: _164  and  _166
REMARK   63  A    between atoms: _166  and  _167
REMARK   64  A    between atoms: _166  and  _169
REMARK   65  A    between atoms: _169  and  _170
REMARK   66  A    between atoms: _170  and  _171
REMARK   67  A    between atoms: _174  and  _176
REMARK   68  A    between atoms: _176  and  _177
REMARK   69  A    between atoms: _176  and  _179
REMARK   70  A    between atoms: _179  and  _180
REMARK   71  A    between atoms: _183  and  _185
REMARK   72  A    between atoms: _185  and  _186
REMARK   73  A    between atoms: _185  and  _188
REMARK   74  A    between atoms: _188  and  _189
REMARK   75  A    between atoms: _194  and  _196
REMARK   76  A    between atoms: _196  and  _197
REMARK   77  A    between atoms: _196  and  _199
REMARK   78  A    between atoms: _199  and  _200
REMARK   79  A    between atoms: _200  and  _201
REMARK   80  A    between atoms: _201  and  _202
REMARK   81  A    between atoms: _211  and  _213
REMARK   82  A    between atoms: _213  and  _214
REMARK   83  A    between atoms: _213  and  _216
REMARK   84  A    between atoms: _216  and  _217
REMARK   85  A    between atoms: _220  and  _222
REMARK   86  A    between atoms: _222  and  _223
REMARK   87  A    between atoms: _222  and  _225
REMARK   88  A    between atoms: _228  and  _230
REMARK   89  A    between atoms: _230  and  _231
REMARK   90  A    between atoms: _230  and  _233
REMARK   91  A    between atoms: _233  and  _234
REMARK   92  A    between atoms: _241  and  _242
REMARK   93  A    between atoms: _241  and  _244
REMARK   94  A    between atoms: _247  and  _249
REMARK   95  A    between atoms: _249  and  _250
REMARK   96  A    between atoms: _249  and  _252
REMARK   97  A    between atoms: _252  and  _253
REMARK   98  A    between atoms: _253  and  _254
REMARK   99  A    between atoms: _254  and  _255
REMARK  100  A    between atoms: _264  and  _266
REMARK  101  A    between atoms: _266  and  _267
REMARK  102  A    between atoms: _270  and  _272
REMARK  103  A    between atoms: _272  and  _273
REMARK  104  A    between atoms: _272  and  _275
REMARK  105  A    between atoms: _275  and  _276
REMARK  106  A    between atoms: _276  and  _277
REMARK  107  A    between atoms: _277  and  _278
REMARK  108  A    between atoms: _278  and  _279
REMARK  109  A    between atoms: _283  and  _285
REMARK  110  A    between atoms: _285  and  _286
REMARK  111  A    between atoms: _288  and  _290
REMARK  112  A    between atoms: _290  and  _291
REMARK  113  A    between atoms: _290  and  _293
REMARK  114  A    between atoms: _293  and  _294
REMARK  115  A    between atoms: _294  and  _295
REMARK  116  A    between atoms: _295  and  _296
REMARK  117  A    between atoms: _296  and  _297
REMARK  118  A    between atoms: _301  and  _303
REMARK  119  A    between atoms: _303  and  _304
REMARK  120  A    between atoms: _303  and  _306
REMARK  121  A    between atoms: _306  and  _307
REMARK  122  A    between atoms: _317  and  _319
REMARK  123  A    between atoms: _319  and  _320
REMARK  124  A    between atoms: _319  and  _322
REMARK  125  A    between atoms: _322  and  _323
REMARK  126  A    between atoms: _328  and  _330
REMARK  127  A    between atoms: _330  and  _331
REMARK  128  A    between atoms: _330  and  _333
REMARK  129  A    between atoms: _333  and  _334
REMARK  130  A    between atoms: _337  and  _339
REMARK  131  A    between atoms: _339  and  _340
REMARK  132  A    between atoms: _339  and  _342
REMARK  133  A    between atoms: _342  and  _343
REMARK                            x       y       z     vdW  Elec       q    Type
REMARK                         _______ _______ _______ _____ _____    ______ ____
ROOT
ATOM      1  CA  ARG A   3      36.452  18.778  63.538  0.00  0.00    +0.149 C 
ENDROOT
BRANCH   1   2
ATOM      2  C   ARG A   3      37.322  19.713  64.375  0.00  0.00    +0.241 C 
ATOM      3  N   ALA A   4      38.270  19.188  65.128  0.00  0.00    -0.297 N 
ATOM      4  H   ALA A   4      38.406  18.177  65.137  0.00  0.00    +0.150 HD
ATOM      5  O   ARG A   3      37.107  20.894  64.358  0.00  0.00    -0.273 OA
BRANCH   3   6
ATOM      6  CA  ALA A   4      39.129  20.044  65.951  0.00  0.00    +0.149 C 
ATOM      7  CB  ALA A   4      39.990  19.171  66.905  0.00  0.00    +0.031 C 
BRANCH   6   8
ATOM      8  C   ALA A   4      40.034  20.949  65.087  0.00  0.00    +0.241 C 
ATOM      9  O   ALA A   4      40.264  22.128  65.410  0.00  0.00    -0.273 OA
ATOM     10  N   LYS A   5      40.546  20.382  64.001  0.00  0.00    -0.297 N 
ATOM     11  H   LYS A   5      40.257  19.436  63.752  0.00  0.00    +0.150 HD
BRANCH  10  12
ATOM     12  CA  LYS A   5      41.512  21.077  63.154  0.00  0.00    +0.149 C 
BRANCH  12  13
ATOM     13  C   LYS A   5      40.856  22.074  62.216  0.00  0.00    +0.241 C 
ATOM     14  N   GLY A   6      39.567  21.908  61.949  0.00  0.00    -0.296 N 
ATOM     15  H   GLY A   6      39.085  21.101  62.344  0.00  0.00    +0.150 HD
ATOM     16  O   LYS A   5      41.508  22.986  61.746  0.00  0.00    -0.273 OA
BRANCH  14  17
ATOM     17  CA  GLY A   6      38.808  22.841  61.107  0.00  0.00    +0.163 C 
BRANCH  17  18
ATOM     18  C   GLY A   6      37.470  22.256  60.699  0.00  0.00    +0.229 C 
ATOM     19  O   GLY A   6      37.204  21.105  60.952  0.00  0.00    -0.286 OA
ENDBRANCH  17  18
ENDBRANCH  14  17
ENDBRANCH  12  13
BRANCH  12  20
ATOM     20  CB  LYS A   5      42.383  20.075  62.374  0.00  0.00    +0.029 C 
BRANCH  20  21
ATOM     21  CG  LYS A   5      41.693  19.390  61.180  0.00  0.00    +0.000 C 
BRANCH  21  22
ATOM     22  CD  LYS A   5      41.073  17.985  61.485  0.00  0.00    -0.024 C 
BRANCH  22  23
ATOM     23  CE  LYS A   5      40.488  17.379  60.146  0.00  0.00    -0.086 C 
BRANCH  23  24
ATOM     24  NZ  LYS A   5      39.547  16.194  60.211  0.00  0.00    +0.380 N 
ATOM     25  HZ1 LYS A   5      38.722  16.446  60.754  0.00  0.00    -0.089 HD
ATOM     26  HZ2 LYS A   5      40.022  15.409  60.656  0.00  0.00    -0.089 HD
ATOM     27  HZ3 LYS A   5      39.266  15.932  59.266  0.00  0.00    -0.089 HD
ENDBRANCH  23  24
ENDBRANCH  22  23
ENDBRANCH  21  22
ENDBRANCH  20  21
ENDBRANCH  12  20
ENDBRANCH  10  12
ENDBRANCH   6   8
ENDBRANCH   3   6
ENDBRANCH   1   2
BRANCH   1  30
ATOM     28  C   VAL A   2      34.064  18.922  63.173  0.00  0.00    +0.256 C 
ATOM     29  O   VAL A   2      33.880  17.803  63.630  0.00  0.00    -0.269 OA
ATOM     30  N   ARG A   3      35.258  19.494  63.131  0.00  0.00    -0.294 N 
ATOM     31  H   ARG A   3      35.339  20.457  62.806  0.00  0.00    +0.150 HD
BRANCH  28  34
ATOM     32  C   ASN A   1      32.451  19.024  60.302  0.00  0.00    +0.242 C 
ATOM     33  N   VAL A   2      32.161  18.912  61.586  0.00  0.00    -0.283 N 
ATOM     34  CA  VAL A   2      32.925  19.701  62.531  0.00  0.00    +0.081 C 
ATOM     35  H   VAL A   2      31.420  18.287  61.903  0.00  0.00    +0.155 HD
ATOM     36  O   ASN A   1      33.287  19.848  59.864  0.00  0.00    -0.273 OA
BRANCH  34  37
ATOM     37  CB  VAL A   2      32.057  20.667  63.472  0.00  0.00    +0.041 C 
ATOM     38  CG2 VAL A   2      32.452  20.590  64.959  0.00  0.00    +0.006 C 
ATOM     39  CG1 VAL A   2      30.582  20.562  63.213  0.00  0.00    +0.006 C 
ENDBRANCH  34  37
BRANCH  32  40
ATOM     40  CA  ASN A   1      31.793  18.058  59.356  0.00  0.00    +0.154 C 
BRANCH  40  41
ATOM     41  N   ASN A   1      31.016  18.824  58.375  0.00  0.00    -0.238 NA
ATOM     42  H   ASN A   1      31.524  19.376  57.685  0.00  0.00    +0.142 HD
ENDBRANCH  40  41
BRANCH  40  43
ATOM     43  CB  ASN A   1      32.970  17.301  58.713  0.00  0.00    +0.111 C 
BRANCH  43  44
ATOM     44  CG  ASN A   1      32.565  16.418  57.538  0.00  0.00    +0.221 C 
ATOM     45  ND2 ASN A   1      31.669  15.435  57.763  0.00  0.00    -0.329 N 
ATOM     46 HD21 ASN A   1      31.248  15.330  58.686  0.00  0.00    +0.145 HD
ATOM     47 HD22 ASN A   1      31.413  14.796  57.010  0.00  0.00    +0.145 HD
ATOM     48  OD1 ASN A   1      33.102  16.591  56.452  0.00  0.00    -0.275 OA
ENDBRANCH  43  44
ENDBRANCH  40  43
ENDBRANCH  32  40
ENDBRANCH  28  34
ENDBRANCH   1  30
BRANCH   1  49
ATOM     49  CB  ARG A   3      37.197  18.292  62.296  0.00  0.00    +0.033 C 
BRANCH  49  50
ATOM     50  CG  ARG A   3      36.353  17.348  61.408  0.00  0.00    +0.045 C 
BRANCH  50  51
ATOM     51  CD  ARG A   3      36.276  15.961  62.018  0.00  0.00    +0.174 C 
BRANCH  51  52
ATOM     52  NE  ARG A   3      35.530  15.061  61.150  0.00  0.00    -0.265 N 
ATOM     53  CZ  ARG A   3      34.219  14.911  61.155  0.00  0.00    +0.342 C 
ATOM     54  NH2 ARG A   3      33.471  15.591  62.017  0.00  0.00    -0.292 N 
ATOM     55 HH21 ARG A   3      33.910  16.232  62.678  0.00  0.00    +0.255 HD
ATOM     56 HH22 ARG A   3      32.458  15.472  62.018  0.00  0.00    +0.255 HD
ATOM     57  NH1 ARG A   3      33.654  14.073  60.293  0.00  0.00    -0.292 N 
ATOM     58 HH11 ARG A   3      32.641  13.951  60.290  0.00  0.00    +0.255 HD
ATOM     59 HH12 ARG A   3      34.233  13.552  59.634  0.00  0.00    +0.255 HD
ATOM     60  HE  ARG A   3      36.064  14.502  60.485  0.00  0.00    +0.259 HD
ENDBRANCH  51  52
ENDBRANCH  50  51
ENDBRANCH  49  50
ENDBRANCH   1  49
TORSDOF 23
REMARK  Name = ../refined-set-2016/2v8w/2v8w_pocket.pdb
REMARK  133 active torsions:
REMARK  status: ('A' for Active; 'I' for Inactive)
REMARK    1  A    between atoms: _1  and  _3
REMARK    2  A    between atoms: _3  and  _4
REMARK    3  A    between atoms: _3  and  _6
REMARK    4  A    between atoms: _6  and  _7
REMARK    5  A    between atoms: _13  and  _15
REMARK    6  A    between atoms: _15  and  _16
REMARK    7  A    between atoms: _15  and  _18
REMARK    8  A    between atoms: _18  and  _19
REMARK    9  A    between atoms: _24  and  _26
REMARK   10  A    between atoms: _26  and  _27
REMARK   11  A    between atoms: _26  and  _29
REMARK   12  A    between atoms: _29  and  _30
REMARK   13  A    between atoms: _33  and  _35
REMARK   14  A    between atoms: _35  and  _36
REMARK   15  A    between atoms: _35  and  _38
REMARK   16  A    between atoms: _38  and  _39
REMARK   17  A    between atoms: _49  and  _51
REMARK   18  A    between atoms: _51  and  _52
REMARK   19  A    between atoms: _51  and  _54
REMARK   20  A    between atoms: _54  and  _55
REMARK   21  A    between atoms: _55  and  _56
REMARK   22  A    between atoms: _61  and  _63
REMARK   23  A    between atoms: _63  and  _64
REMARK   24  A    between atoms: _63  and  _66
REMARK   25  A    between atoms: _66  and  _67
REMARK   26  A    between atoms: _72  and  _74
REMARK   27  A    between atoms: _74  and  _75
REMARK   28  A    between atoms: _74  and  _77
REMARK   29  A    between atoms: _77  and  _78
REMARK   30  A    between atoms: _81  and  _83
REMARK   31  A    between atoms: _83  and  _84
REMARK   32  A    between atoms: _86  and  _88
REMARK   33  A    between atoms: _88  and  _89
REMARK   34  A    between atoms: _88  and  _91
REMARK   35  A    between atoms: _93  and  _95
REMARK   36  A    between atoms: _95  and  _96
REMARK   37  A    between atoms: _95  and  _98
REMARK   38  A    between atoms: _98  and  _99
REMARK   39  A    between atoms: _102  and  _104
REMARK   40  A    between atoms: _104  and  _105
REMARK   41  A    between atoms: _104  and  _107
REMARK   42  A    between atoms: _107  and  _108
REMARK   43  A    between atoms: _110  and  _112
REMARK   44  A    between atoms: _112  and  _113
REMARK   45  A    between atoms: _112  and  _115
REMARK   46  A    between atoms: _115  and  _116
REMARK   47  A    between atoms: _122  and  _124
REMARK   48  A    between atoms: _124  and  _125
REMARK   49  A    between atoms: _124  and  _127
REMARK   50  A    between atoms: _127  and  _128
REMARK   51  A    between atoms: _128  and  _129
REMARK   52  A    between atoms: _133  and  _134
REMARK   53  A    between atoms: _139  and  _141
REMARK   54  A    between atoms: _141  and  _142
REMARK   55  A    between atoms: _141  and  _144
REMARK   56  A    between atoms: _144  and  _145
REMARK   57  A    between atoms: _145  and  _146
REMARK   58  A    between atoms: _148  and  _150
REMARK   59  A    between atoms: _150  and  _151
REMARK   60  A    between atoms: _150  and  _153
REMARK   61  A    between atoms: _153  and  _154
REMARK   62  A    between atoms: _164  and  _166
REMARK   63  A    between atoms: _166  and  _167
REMARK   64  A    between atoms: _166  and  _169
REMARK   65  A    between atoms: _169  and  _170
REMARK   66  A    between atoms: _170  and  _171
REMARK   67  A    between atoms: _174  and  _176
REMARK   68  A    between atoms: _176  and  _177
REMARK   69  A    between atoms: _176  and  _179
REMARK   70  A    between atoms: _179  and  _180
REMARK   71  A    between atoms: _183  and  _185
REMARK   72  A    between atoms: _185  and  _186
REMARK   73  A    between atoms: _185  and  _188
REMARK   74  A    between atoms: _188  and  _189
REMARK   75  A    between atoms: _194  and  _196
REMARK   76  A    between atoms: _196  and  _197
REMARK   77  A    between atoms: _196  and  _199
REMARK   78  A    between atoms: _199  and  _200
REMARK   79  A    between atoms: _200  and  _201
REMARK   80  A    between atoms: _201  and  _202
REMARK   81  A    between atoms: _211  and  _213
REMARK   82  A    between atoms: _213  and  _214
REMARK   83  A    between atoms: _213  and  _216
REMARK   84  A    between atoms: _216  and  _217
REMARK   85  A    between atoms: _220  and  _222
REMARK   86  A    between atoms: _222  and  _223
REMARK   87  A    between atoms: _222  and  _225
REMARK   88  A    between atoms: _228  and  _230
REMARK   89  A    between atoms: _230  and  _231
REMARK   90  A    between atoms: _230  and  _233
REMARK   91  A    between atoms: _233  and  _234
REMARK   92  A    between atoms: _241  and  _242
REMARK   93  A    between atoms: _241  and  _244
REMARK   94  A    between atoms: _247  and  _249
REMARK   95  A    between atoms: _249  and  _250
REMARK   96  A    between atoms: _249  and  _252
REMARK   97  A    between atoms: _252  and  _253
REMARK   98  A    between atoms: _253  and  _254
REMARK   99  A    between atoms: _254  and  _255
REMARK  100  A    between atoms: _264  and  _266
REMARK  101  A    between atoms: _266  and  _267
REMARK  102  A    between atoms: _270  and  _272
REMARK  103  A    between atoms: _272  and  _273
REMARK  104  A    between atoms: _272  and  _275
REMARK  105  A    between atoms: _275  and  _276
REMARK  106  A    between atoms: _276  and  _277
REMARK  107  A    between atoms: _277  and  _278
REMARK  108  A    between atoms: _278  and  _279
REMARK  109  A    between atoms: _283  and  _285
REMARK  110  A    between atoms: _285  and  _286
REMARK  111  A    between atoms: _288  and  _290
REMARK  112  A    between atoms: _290  and  _291
REMARK  113  A    between atoms: _290  and  _293
REMARK  114  A    between atoms: _293  and  _294
REMARK  115  A    between atoms: _294  and  _295
REMARK  116  A    between atoms: _295  and  _296
REMARK  117  A    between atoms: _296  and  _297
REMARK  118  A    between atoms: _301  and  _303
REMARK  119  A    between atoms: _303  and  _304
REMARK  120  A    between atoms: _303  and  _306
REMARK  121  A    between atoms: _306  and  _307
REMARK  122  A    between atoms: _317  and  _319
REMARK  123  A    between atoms: _319  and  _320
REMARK  124  A    between atoms: _319  and  _322
REMARK  125  A    between atoms: _322  and  _323
REMARK  126  A    between atoms: _328  and  _330
REMARK  127  A    between atoms: _330  and  _331
REMARK  128  A    between atoms: _330  and  _333
REMARK  129  A    between atoms: _333  and  _334
REMARK  130  A    between atoms: _337  and  _339
REMARK  131  A    between atoms: _339  and  _340
REMARK  132  A    between atoms: _339  and  _342
REMARK  133  A    between atoms: _342  and  _343
REMARK                            x       y       z     vdW  Elec       q    Type
REMARK                         _______ _______ _______ _____ _____    ______ ____
ROOT
ATOM      1  CG  LYS A   1      36.194  19.603  56.166  0.00  0.00    -0.000 C 
ENDROOT
BRANCH   1   2
ATOM      2  CB  LYS A   1      34.743  19.820  55.898  0.00  0.00    +0.025 C 
BRANCH   2   3
ATOM      3  CA  LYS A   1      34.208  21.197  56.299  0.00  0.00    +0.133 C 
BRANCH   3   4
ATOM      4  N   LYS A   1      34.366  21.481  57.719  0.00  0.00    -0.239 NA
ATOM      5  H   LYS A   1      33.788  20.985  58.397  0.00  0.00    +0.142 HD
ENDBRANCH   3   4
BRANCH   3   6
ATOM      6  C   LYS A   1      32.751  21.255  55.924  0.00  0.00    +0.224 C 
ATOM      7  O   LYS A   1      31.880  20.757  56.657  0.00  0.00    -0.287 OA
ENDBRANCH   3   6
ENDBRANCH   2   3
ENDBRANCH   1   2
BRANCH   1   8
ATOM      8  CD  LYS A   1      36.675  18.354  55.400  0.00  0.00    -0.024 C 
BRANCH   8   9
ATOM      9  CE  LYS A   1      37.622  17.533  56.285  0.00  0.00    -0.086 C 
BRANCH   9  10
ATOM     10  NZ  LYS A   1      37.664  16.068  55.983  0.00  0.00    +0.380 N 
ATOM     11  HZ1 LYS A   1      38.317  15.610  56.619  0.00  0.00    -0.089 HD
ATOM     12  HZ2 LYS A   1      36.733  15.670  56.105  0.00  0.00    -0.089 HD
ATOM     13  HZ3 LYS A   1      37.971  15.929  55.020  0.00  0.00    -0.089 HD
ENDBRANCH   9  10
ENDBRANCH   8   9
ENDBRANCH   1   8
TORSDOF 7
REMARK  Name = ../refined-set-2016/2v8w/2v8w_pocket.pdb
REMARK  133 active torsions:
REMARK  status: ('A' for Active; 'I' for Inactive)
REMARK    1  A    between atoms: _1  and  _3
REMARK    2  A    between atoms: _3  and  _4
REMARK    3  A    between atoms: _3  and  _6
REMARK    4  A    between atoms: _6  and  _7
REMARK    5  A    between atoms: _13  and  _15
REMARK    6  A    between atoms: _15  and  _16
REMARK    7  A    between atoms: _15  and  _18
REMARK    8  A    between atoms: _18  and  _19
REMARK    9  A    between atoms: _24  and  _26
REMARK   10  A    between atoms: _26  and  _27
REMARK   11  A    between atoms: _26  and  _29
REMARK   12  A    between atoms: _29  and  _30
REMARK   13  A    between atoms: _33  and  _35
REMARK   14  A    between atoms: _35  and  _36
REMARK   15  A    between atoms: _35  and  _38
REMARK   16  A    between atoms: _38  and  _39
REMARK   17  A    between atoms: _49  and  _51
REMARK   18  A    between atoms: _51  and  _52
REMARK   19  A    between atoms: _51  and  _54
REMARK   20  A    between atoms: _54  and  _55
REMARK   21  A    between atoms: _55  and  _56
REMARK   22  A    between atoms: _61  and  _63
REMARK   23  A    between atoms: _63  and  _64
REMARK   24  A    between atoms: _63  and  _66
REMARK   25  A    between atoms: _66  and  _67
REMARK   26  A    between atoms: _72  and  _74
REMARK   27  A    between atoms: _74  and  _75
REMARK   28  A    between atoms: _74  and  _77
REMARK   29  A    between atoms: _77  and  _78
REMARK   30  A    between atoms: _81  and  _83
REMARK   31  A    between atoms: _83  and  _84
REMARK   32  A    between atoms: _86  and  _88
REMARK   33  A    between atoms: _88  and  _89
REMARK   34  A    between atoms: _88  and  _91
REMARK   35  A    between atoms: _93  and  _95
REMARK   36  A    between atoms: _95  and  _96
REMARK   37  A    between atoms: _95  and  _98
REMARK   38  A    between atoms: _98  and  _99
REMARK   39  A    between atoms: _102  and  _104
REMARK   40  A    between atoms: _104  and  _105
REMARK   41  A    between atoms: _104  and  _107
REMARK   42  A    between atoms: _107  and  _108
REMARK   43  A    between atoms: _110  and  _112
REMARK   44  A    between atoms: _112  and  _113
REMARK   45  A    between atoms: _112  and  _115
REMARK   46  A    between atoms: _115  and  _116
REMARK   47  A    between atoms: _122  and  _124
REMARK   48  A    between atoms: _124  and  _125
REMARK   49  A    between atoms: _124  and  _127
REMARK   50  A    between atoms: _127  and  _128
REMARK   51  A    between atoms: _128  and  _129
REMARK   52  A    between atoms: _133  and  _134
REMARK   53  A    between atoms: _139  and  _141
REMARK   54  A    between atoms: _141  and  _142
REMARK   55  A    between atoms: _141  and  _144
REMARK   56  A    between atoms: _144  and  _145
REMARK   57  A    between atoms: _145  and  _146
REMARK   58  A    between atoms: _148  and  _150
REMARK   59  A    between atoms: _150  and  _151
REMARK   60  A    between atoms: _150  and  _153
REMARK   61  A    between atoms: _153  and  _154
REMARK   62  A    between atoms: _164  and  _166
REMARK   63  A    between atoms: _166  and  _167
REMARK   64  A    between atoms: _166  and  _169
REMARK   65  A    between atoms: _169  and  _170
REMARK   66  A    between atoms: _170  and  _171
REMARK   67  A    between atoms: _174  and  _176
REMARK   68  A    between atoms: _176  and  _177
REMARK   69  A    between atoms: _176  and  _179
REMARK   70  A    between atoms: _179  and  _180
REMARK   71  A    between atoms: _183  and  _185
REMARK   72  A    between atoms: _185  and  _186
REMARK   73  A    between atoms: _185  and  _188
REMARK   74  A    between atoms: _188  and  _189
REMARK   75  A    between atoms: _194  and  _196
REMARK   76  A    between atoms: _196  and  _197
REMARK   77  A    between atoms: _196  and  _199
REMARK   78  A    between atoms: _199  and  _200
REMARK   79  A    between atoms: _200  and  _201
REMARK   80  A    between atoms: _201  and  _202
REMARK   81  A    between atoms: _211  and  _213
REMARK   82  A    between atoms: _213  and  _214
REMARK   83  A    between atoms: _213  and  _216
REMARK   84  A    between atoms: _216  and  _217
REMARK   85  A    between atoms: _220  and  _222
REMARK   86  A    between atoms: _222  and  _223
REMARK   87  A    between atoms: _222  and  _225
REMARK   88  A    between atoms: _228  and  _230
REMARK   89  A    between atoms: _230  and  _231
REMARK   90  A    between atoms: _230  and  _233
REMARK   91  A    between atoms: _233  and  _234
REMARK   92  A    between atoms: _241  and  _242
REMARK   93  A    between atoms: _241  and  _244
REMARK   94  A    between atoms: _247  and  _249
REMARK   95  A    between atoms: _249  and  _250
REMARK   96  A    between atoms: _249  and  _252
REMARK   97  A    between atoms: _252  and  _253
REMARK   98  A    between atoms: _253  and  _254
REMARK   99  A    between atoms: _254  and  _255
REMARK  100  A    between atoms: _264  and  _266
REMARK  101  A    between atoms: _266  and  _267
REMARK  102  A    between atoms: _270  and  _272
REMARK  103  A    between atoms: _272  and  _273
REMARK  104  A    between atoms: _272  and  _275
REMARK  105  A    between atoms: _275  and  _276
REMARK  106  A    between atoms: _276  and  _277
REMARK  107  A    between atoms: _277  and  _278
REMARK  108  A    between atoms: _278  and  _279
REMARK  109  A    between atoms: _283  and  _285
REMARK  110  A    between atoms: _285  and  _286
REMARK  111  A    between atoms: _288  and  _290
REMARK  112  A    between atoms: _290  and  _291
REMARK  113  A    between atoms: _290  and  _293
REMARK  114  A    between atoms: _293  and  _294
REMARK  115  A    between atoms: _294  and  _295
REMARK  116  A    between atoms: _295  and  _296
REMARK  117  A    between atoms: _296  and  _297
REMARK  118  A    between atoms: _301  and  _303
REMARK  119  A    between atoms: _303  and  _304
REMARK  120  A    between atoms: _303  and  _306
REMARK  121  A    between atoms: _306  and  _307
REMARK  122  A    between atoms: _317  and  _319
REMARK  123  A    between atoms: _319  and  _320
REMARK  124  A    between atoms: _319  and  _322
REMARK  125  A    between atoms: _322  and  _323
REMARK  126  A    between atoms: _328  and  _330
REMARK  127  A    between atoms: _330  and  _331
REMARK  128  A    between atoms: _330  and  _333
REMARK  129  A    between atoms: _333  and  _334
REMARK  130  A    between atoms: _337  and  _339
REMARK  131  A    between atoms: _339  and  _340
REMARK  132  A    between atoms: _339  and  _342
REMARK  133  A    between atoms: _342  and  _343
REMARK                            x       y       z     vdW  Elec       q    Type
REMARK                         _______ _______ _______ _____ _____    ______ ____
ROOT
ATOM      1  CG  TRP A   1      27.936  14.684  49.213  0.00  0.00    -0.002 A 
ATOM      2  CD1 TRP A   1      28.803  15.547  49.868  0.00  0.00    +0.068 A 
ATOM      3  NE1 TRP A   1      29.567  14.842  50.791  0.00  0.00    -0.352 N 
ATOM      4  HE1 TRP A   1      30.284  15.245  51.394  0.00  0.00    +0.166 HD
ATOM      5  CE2 TRP A   1      29.203  13.515  50.763  0.00  0.00    +0.056 A 
ATOM      6  CZ2 TRP A   1      29.692  12.415  51.520  0.00  0.00    +0.017 A 
ATOM      7  CH2 TRP A   1      29.143  11.186  51.294  0.00  0.00    +0.001 A 
ATOM      8  CZ3 TRP A   1      28.115  11.014  50.352  0.00  0.00    +0.000 A 
ATOM      9  CE3 TRP A   1      27.629  12.106  49.574  0.00  0.00    +0.001 A 
ATOM     10  CD2 TRP A   1      28.182  13.371  49.781  0.00  0.00    +0.013 A 
ENDROOT
BRANCH   1  11
ATOM     11  CB  TRP A   1      26.936  15.030  48.146  0.00  0.00    +0.053 C 
BRANCH  11  12
ATOM     12  CA  TRP A   1      27.403  16.066  47.119  0.00  0.00    +0.137 C 
BRANCH  12  13
ATOM     13  N   TRP A   1      27.369  17.385  47.740  0.00  0.00    -0.239 NA
ATOM     14  H   TRP A   1      26.663  17.536  48.460  0.00  0.00    +0.142 HD
ENDBRANCH  12  13
BRANCH  12  15
ATOM     15  C   TRP A   1      26.522  16.050  45.861  0.00  0.00    +0.224 C 
ATOM     16  O   TRP A   1      25.350  16.455  45.917  0.00  0.00    -0.287 OA
ENDBRANCH  12  15
ENDBRANCH  11  12
ENDBRANCH   1  11
TORSDOF 4
REMARK  Name = ../refined-set-2016/2v8w/2v8w_pocket.pdb
REMARK  133 active torsions:
REMARK  status: ('A' for Active; 'I' for Inactive)
REMARK    1  A    between atoms: _1  and  _3
REMARK    2  A    between atoms: _3  and  _4
REMARK    3  A    between atoms: _3  and  _6
REMARK    4  A    between atoms: _6  and  _7
REMARK    5  A    between atoms: _13  and  _15
REMARK    6  A    between atoms: _15  and  _16
REMARK    7  A    between atoms: _15  and  _18
REMARK    8  A    between atoms: _18  and  _19
REMARK    9  A    between atoms: _24  and  _26
REMARK   10  A    between atoms: _26  and  _27
REMARK   11  A    between atoms: _26  and  _29
REMARK   12  A    between atoms: _29  and  _30
REMARK   13  A    between atoms: _33  and  _35
REMARK   14  A    between atoms: _35  and  _36
REMARK   15  A    between atoms: _35  and  _38
REMARK   16  A    between atoms: _38  and  _39
REMARK   17  A    between atoms: _49  and  _51
REMARK   18  A    between atoms: _51  and  _52
REMARK   19  A    between atoms: _51  and  _54
REMARK   20  A    between atoms: _54  and  _55
REMARK   21  A    between atoms: _55  and  _56
REMARK   22  A    between atoms: _61  and  _63
REMARK   23  A    between atoms: _63  and  _64
REMARK   24  A    between atoms: _63  and  _66
REMARK   25  A    between atoms: _66  and  _67
REMARK   26  A    between atoms: _72  and  _74
REMARK   27  A    between atoms: _74  and  _75
REMARK   28  A    between atoms: _74  and  _77
REMARK   29  A    between atoms: _77  and  _78
REMARK   30  A    between atoms: _81  and  _83
REMARK   31  A    between atoms: _83  and  _84
REMARK   32  A    between atoms: _86  and  _88
REMARK   33  A    between atoms: _88  and  _89
REMARK   34  A    between atoms: _88  and  _91
REMARK   35  A    between atoms: _93  and  _95
REMARK   36  A    between atoms: _95  and  _96
REMARK   37  A    between atoms: _95  and  _98
REMARK   38  A    between atoms: _98  and  _99
REMARK   39  A    between atoms: _102  and  _104
REMARK   40  A    between atoms: _104  and  _105
REMARK   41  A    between atoms: _104  and  _107
REMARK   42  A    between atoms: _107  and  _108
REMARK   43  A    between atoms: _110  and  _112
REMARK   44  A    between atoms: _112  and  _113
REMARK   45  A    between atoms: _112  and  _115
REMARK   46  A    between atoms: _115  and  _116
REMARK   47  A    between atoms: _122  and  _124
REMARK   48  A    between atoms: _124  and  _125
REMARK   49  A    between atoms: _124  and  _127
REMARK   50  A    between atoms: _127  and  _128
REMARK   51  A    between atoms: _128  and  _129
REMARK   52  A    between atoms: _133  and  _134
REMARK   53  A    between atoms: _139  and  _141
REMARK   54  A    between atoms: _141  and  _142
REMARK   55  A    between atoms: _141  and  _144
REMARK   56  A    between atoms: _144  and  _145
REMARK   57  A    between atoms: _145  and  _146
REMARK   58  A    between atoms: _148  and  _150
REMARK   59  A    between atoms: _150  and  _151
REMARK   60  A    between atoms: _150  and  _153
REMARK   61  A    between atoms: _153  and  _154
REMARK   62  A    between atoms: _164  and  _166
REMARK   63  A    between atoms: _166  and  _167
REMARK   64  A    between atoms: _166  and  _169
REMARK   65  A    between atoms: _169  and  _170
REMARK   66  A    between atoms: _170  and  _171
REMARK   67  A    between atoms: _174  and  _176
REMARK   68  A    between atoms: _176  and  _177
REMARK   69  A    between atoms: _176  and  _179
REMARK   70  A    between atoms: _179  and  _180
REMARK   71  A    between atoms: _183  and  _185
REMARK   72  A    between atoms: _185  and  _186
REMARK   73  A    between atoms: _185  and  _188
REMARK   74  A    between atoms: _188  and  _189
REMARK   75  A    between atoms: _194  and  _196
REMARK   76  A    between atoms: _196  and  _197
REMARK   77  A    between atoms: _196  and  _199
REMARK   78  A    between atoms: _199  and  _200
REMARK   79  A    between atoms: _200  and  _201
REMARK   80  A    between atoms: _201  and  _202
REMARK   81  A    between atoms: _211  and  _213
REMARK   82  A    between atoms: _213  and  _214
REMARK   83  A    between atoms: _213  and  _216
REMARK   84  A    between atoms: _216  and  _217
REMARK   85  A    between atoms: _220  and  _222
REMARK   86  A    between atoms: _222  and  _223
REMARK   87  A    between atoms: _222  and  _225
REMARK   88  A    between atoms: _228  and  _230
REMARK   89  A    between atoms: _230  and  _231
REMARK   90  A    between atoms: _230  and  _233
REMARK   91  A    between atoms: _233  and  _234
REMARK   92  A    between atoms: _241  and  _242
REMARK   93  A    between atoms: _241  and  _244
REMARK   94  A    between atoms: _247  and  _249
REMARK   95  A    between atoms: _249  and  _250
REMARK   96  A    between atoms: _249  and  _252
REMARK   97  A    between atoms: _252  and  _253
REMARK   98  A    between atoms: _253  and  _254
REMARK   99  A    between atoms: _254  and  _255
REMARK  100  A    between atoms: _264  and  _266
REMARK  101  A    between atoms: _266  and  _267
REMARK  102  A    between atoms: _270  and  _272
REMARK  103  A    between atoms: _272  and  _273
REMARK  104  A    between atoms: _272  and  _275
REMARK  105  A    between atoms: _275  and  _276
REMARK  106  A    between atoms: _276  and  _277
REMARK  107  A    between atoms: _277  and  _278
REMARK  108  A    between atoms: _278  and  _279
REMARK  109  A    between atoms: _283  and  _285
REMARK  110  A    between atoms: _285  and  _286
REMARK  111  A    between atoms: _288  and  _290
REMARK  112  A    between atoms: _290  and  _291
REMARK  113  A    between atoms: _290  and  _293
REMARK  114  A    between atoms: _293  and  _294
REMARK  115  A    between atoms: _294  and  _295
REMARK  116  A    between atoms: _295  and  _296
REMARK  117  A    between atoms: _296  and  _297
REMARK  118  A    between atoms: _301  and  _303
REMARK  119  A    between atoms: _303  and  _304
REMARK  120  A    between atoms: _303  and  _306
REMARK  121  A    between atoms: _306  and  _307
REMARK  122  A    between atoms: _317  and  _319
REMARK  123  A    between atoms: _319  and  _320
REMARK  124  A    between atoms: _319  and  _322
REMARK  125  A    between atoms: _322  and  _323
REMARK  126  A    between atoms: _328  and  _330
REMARK  127  A    between atoms: _330  and  _331
REMARK  128  A    between atoms: _330  and  _333
REMARK  129  A    between atoms: _333  and  _334
REMARK  130  A    between atoms: _337  and  _339
REMARK  131  A    between atoms: _339  and  _340
REMARK  132  A    between atoms: _339  and  _342
REMARK  133  A    between atoms: _342  and  _343
REMARK                            x       y       z     vdW  Elec       q    Type
REMARK                         _______ _______ _______ _____ _____    ______ ____
ROOT
ATOM      1  CB  HIS A   1      32.408   9.205  46.555  0.00  0.00    +0.072 C 
ENDROOT
BRANCH   1   2
ATOM      2  CG  HIS A   1      31.525  10.358  46.899  0.00  0.00    +0.082 A 
ATOM      3  CD2 HIS A   1      31.749  11.434  47.682  0.00  0.00    +0.115 A 
ATOM      4  NE2 HIS A   1      30.621  12.203  47.643  0.00  0.00    -0.221 NA
ATOM      5  CE1 HIS A   1      29.732  11.631  46.851  0.00  0.00    +0.199 A 
ATOM      6  ND1 HIS A   1      30.255  10.514  46.382  0.00  0.00    -0.227 NA
ENDBRANCH   1   2
BRANCH   1   7
ATOM      7  CA  HIS A   1      33.823   9.626  46.198  0.00  0.00    +0.139 C 
BRANCH   7   8
ATOM      8  N   HIS A   1      33.843  10.421  44.990  0.00  0.00    -0.239 NA
ATOM      9  H   HIS A   1      32.991  10.495  44.435  0.00  0.00    +0.142 HD
ENDBRANCH   7   8
BRANCH   7  10
ATOM     10  C   HIS A   1      34.713   8.421  46.093  0.00  0.00    +0.224 C 
ATOM     11  O   HIS A   1      35.270   7.992  47.098  0.00  0.00    -0.287 OA
ENDBRANCH   7  10
ENDBRANCH   1   7
TORSDOF 4
REMARK  Name = ../refined-set-2016/2v8w/2v8w_pocket.pdb
REMARK  133 active torsions:
REMARK  status: ('A' for Active; 'I' for Inactive)
REMARK    1  A    between atoms: _1  and  _3
REMARK    2  A    between atoms: _3  and  _4
REMARK    3  A    between atoms: _3  and  _6
REMARK    4  A    between atoms: _6  and  _7
REMARK    5  A    between atoms: _13  and  _15
REMARK    6  A    between atoms: _15  and  _16
REMARK    7  A    between atoms: _15  and  _18
REMARK    8  A    between atoms: _18  and  _19
REMARK    9  A    between atoms: _24  and  _26
REMARK   10  A    between atoms: _26  and  _27
REMARK   11  A    between atoms: _26  and  _29
REMARK   12  A    between atoms: _29  and  _30
REMARK   13  A    between atoms: _33  and  _35
REMARK   14  A    between atoms: _35  and  _36
REMARK   15  A    between atoms: _35  and  _38
REMARK   16  A    between atoms: _38  and  _39
REMARK   17  A    between atoms: _49  and  _51
REMARK   18  A    between atoms: _51  and  _52
REMARK   19  A    between atoms: _51  and  _54
REMARK   20  A    between atoms: _54  and  _55
REMARK   21  A    between atoms: _55  and  _56
REMARK   22  A    between atoms: _61  and  _63
REMARK   23  A    between atoms: _63  and  _64
REMARK   24  A    between atoms: _63  and  _66
REMARK   25  A    between atoms: _66  and  _67
REMARK   26  A    between atoms: _72  and  _74
REMARK   27  A    between atoms: _74  and  _75
REMARK   28  A    between atoms: _74  and  _77
REMARK   29  A    between atoms: _77  and  _78
REMARK   30  A    between atoms: _81  and  _83
REMARK   31  A    between atoms: _83  and  _84
REMARK   32  A    between atoms: _86  and  _88
REMARK   33  A    between atoms: _88  and  _89
REMARK   34  A    between atoms: _88  and  _91
REMARK   35  A    between atoms: _93  and  _95
REMARK   36  A    between atoms: _95  and  _96
REMARK   37  A    between atoms: _95  and  _98
REMARK   38  A    between atoms: _98  and  _99
REMARK   39  A    between atoms: _102  and  _104
REMARK   40  A    between atoms: _104  and  _105
REMARK   41  A    between atoms: _104  and  _107
REMARK   42  A    between atoms: _107  and  _108
REMARK   43  A    between atoms: _110  and  _112
REMARK   44  A    between atoms: _112  and  _113
REMARK   45  A    between atoms: _112  and  _115
REMARK   46  A    between atoms: _115  and  _116
REMARK   47  A    between atoms: _122  and  _124
REMARK   48  A    between atoms: _124  and  _125
REMARK   49  A    between atoms: _124  and  _127
REMARK   50  A    between atoms: _127  and  _128
REMARK   51  A    between atoms: _128  and  _129
REMARK   52  A    between atoms: _133  and  _134
REMARK   53  A    between atoms: _139  and  _141
REMARK   54  A    between atoms: _141  and  _142
REMARK   55  A    between atoms: _141  and  _144
REMARK   56  A    between atoms: _144  and  _145
REMARK   57  A    between atoms: _145  and  _146
REMARK   58  A    between atoms: _148  and  _150
REMARK   59  A    between atoms: _150  and  _151
REMARK   60  A    between atoms: _150  and  _153
REMARK   61  A    between atoms: _153  and  _154
REMARK   62  A    between atoms: _164  and  _166
REMARK   63  A    between atoms: _166  and  _167
REMARK   64  A    between atoms: _166  and  _169
REMARK   65  A    between atoms: _169  and  _170
REMARK   66  A    between atoms: _170  and  _171
REMARK   67  A    between atoms: _174  and  _176
REMARK   68  A    between atoms: _176  and  _177
REMARK   69  A    between atoms: _176  and  _179
REMARK   70  A    between atoms: _179  and  _180
REMARK   71  A    between atoms: _183  and  _185
REMARK   72  A    between atoms: _185  and  _186
REMARK   73  A    between atoms: _185  and  _188
REMARK   74  A    between atoms: _188  and  _189
REMARK   75  A    between atoms: _194  and  _196
REMARK   76  A    between atoms: _196  and  _197
REMARK   77  A    between atoms: _196  and  _199
REMARK   78  A    between atoms: _199  and  _200
REMARK   79  A    between atoms: _200  and  _201
REMARK   80  A    between atoms: _201  and  _202
REMARK   81  A    between atoms: _211  and  _213
REMARK   82  A    between atoms: _213  and  _214
REMARK   83  A    between atoms: _213  and  _216
REMARK   84  A    between atoms: _216  and  _217
REMARK   85  A    between atoms: _220  and  _222
REMARK   86  A    between atoms: _222  and  _223
REMARK   87  A    between atoms: _222  and  _225
REMARK   88  A    between atoms: _228  and  _230
REMARK   89  A    between atoms: _230  and  _231
REMARK   90  A    between atoms: _230  and  _233
REMARK   91  A    between atoms: _233  and  _234
REMARK   92  A    between atoms: _241  and  _242
REMARK   93  A    between atoms: _241  and  _244
REMARK   94  A    between atoms: _247  and  _249
REMARK   95  A    between atoms: _249  and  _250
REMARK   96  A    between atoms: _249  and  _252
REMARK   97  A    between atoms: _252  and  _253
REMARK   98  A    between atoms: _253  and  _254
REMARK   99  A    between atoms: _254  and  _255
REMARK  100  A    between atoms: _264  and  _266
REMARK  101  A    between atoms: _266  and  _267
REMARK  102  A    between atoms: _270  and  _272
REMARK  103  A    between atoms: _272  and  _273
REMARK  104  A    between atoms: _272  and  _275
REMARK  105  A    between atoms: _275  and  _276
REMARK  106  A    between atoms: _276  and  _277
REMARK  107  A    between atoms: _277  and  _278
REMARK  108  A    between atoms: _278  and  _279
REMARK  109  A    between atoms: _283  and  _285
REMARK  110  A    between atoms: _285  and  _286
REMARK  111  A    between atoms: _288  and  _290
REMARK  112  A    between atoms: _290  and  _291
REMARK  113  A    between atoms: _290  and  _293
REMARK  114  A    between atoms: _293  and  _294
REMARK  115  A    between atoms: _294  and  _295
REMARK  116  A    between atoms: _295  and  _296
REMARK  117  A    between atoms: _296  and  _297
REMARK  118  A    between atoms: _301  and  _303
REMARK  119  A    between atoms: _303  and  _304
REMARK  120  A    between atoms: _303  and  _306
REMARK  121  A    between atoms: _306  and  _307
REMARK  122  A    between atoms: _317  and  _319
REMARK  123  A    between atoms: _319  and  _320
REMARK  124  A    between atoms: _319  and  _322
REMARK  125  A    between atoms: _322  and  _323
REMARK  126  A    between atoms: _328  and  _330
REMARK  127  A    between atoms: _330  and  _331
REMARK  128  A    between atoms: _330  and  _333
REMARK  129  A    between atoms: _333  and  _334
REMARK  130  A    between atoms: _337  and  _339
REMARK  131  A    between atoms: _339  and  _340
REMARK  132  A    between atoms: _339  and  _342
REMARK  133  A    between atoms: _342  and  _343
REMARK                            x       y       z     vdW  Elec       q    Type
REMARK                         _______ _______ _______ _____ _____    ______ ____
ROOT
ATOM      1  C   ASP A   1      39.586   7.890  46.779  0.00  0.00    +0.239 C 
ATOM      2  N   THR A   2      38.807   7.236  47.657  0.00  0.00    -0.296 N 
ATOM      3  H   THR A   2      37.874   7.623  47.795  0.00  0.00    +0.150 HD
ATOM      4  O   ASP A   1      40.798   7.660  46.582  0.00  0.00    -0.274 OA
ENDROOT
BRANCH   1   5
ATOM      5  CA  ASP A   1      38.854   8.978  46.004  0.00  0.00    +0.156 C 
BRANCH   5   6
ATOM      6  N   ASP A   1      37.525   8.442  45.681  0.00  0.00    -0.238 NA
ATOM      7  H   ASP A   1      36.734   8.747  46.248  0.00  0.00    +0.142 HD
ENDBRANCH   5   6
BRANCH   5   8
ATOM      8  CB  ASP A   1      38.780  10.302  46.806  0.00  0.00    +0.140 C 
BRANCH   8   9
ATOM      9  CG  ASP A   1      38.003  10.190  48.154  0.00  0.00    +0.367 C 
ATOM     10  OD2 ASP A   1      38.147   9.184  48.903  0.00  0.00    -0.246 OA
ATOM     11  OD1 ASP A   1      37.269  11.156  48.503  0.00  0.00    -0.246 OA
ENDBRANCH   8   9
ENDBRANCH   5   8
ENDBRANCH   1   5
BRANCH   2  12
ATOM     12  CA  THR A   2      39.124   6.030  48.449  0.00  0.00    +0.164 C 
BRANCH  12  13
ATOM     13  C   THR A   2      38.135   5.999  49.616  0.00  0.00    +0.229 C 
ATOM     14  O   THR A   2      37.080   6.638  49.548  0.00  0.00    -0.286 OA
ENDBRANCH  12  13
BRANCH  12  15
ATOM     15  CB  THR A   2      40.612   5.920  48.935  0.00  0.00    +0.136 C 
ATOM     16  CG2 THR A   2      40.728   4.975  50.156  0.00  0.00    +0.034 C 
BRANCH  15  17
ATOM     17  OG1 THR A   2      41.420   5.386  47.876  0.00  0.00    -0.382 OA
ATOM     18  HG1 THR A   2      41.373   5.968  47.114  0.00  0.00    +0.210 HD
ENDBRANCH  15  17
ENDBRANCH  12  15
ENDBRANCH   2  12
TORSDOF 8
REMARK  Name = ../refined-set-2016/2v8w/2v8w_pocket.pdb
REMARK  133 active torsions:
REMARK  status: ('A' for Active; 'I' for Inactive)
REMARK    1  A    between atoms: _1  and  _3
REMARK    2  A    between atoms: _3  and  _4
REMARK    3  A    between atoms: _3  and  _6
REMARK    4  A    between atoms: _6  and  _7
REMARK    5  A    between atoms: _13  and  _15
REMARK    6  A    between atoms: _15  and  _16
REMARK    7  A    between atoms: _15  and  _18
REMARK    8  A    between atoms: _18  and  _19
REMARK    9  A    between atoms: _24  and  _26
REMARK   10  A    between atoms: _26  and  _27
REMARK   11  A    between atoms: _26  and  _29
REMARK   12  A    between atoms: _29  and  _30
REMARK   13  A    between atoms: _33  and  _35
REMARK   14  A    between atoms: _35  and  _36
REMARK   15  A    between atoms: _35  and  _38
REMARK   16  A    between atoms: _38  and  _39
REMARK   17  A    between atoms: _49  and  _51
REMARK   18  A    between atoms: _51  and  _52
REMARK   19  A    between atoms: _51  and  _54
REMARK   20  A    between atoms: _54  and  _55
REMARK   21  A    between atoms: _55  and  _56
REMARK   22  A    between atoms: _61  and  _63
REMARK   23  A    between atoms: _63  and  _64
REMARK   24  A    between atoms: _63  and  _66
REMARK   25  A    between atoms: _66  and  _67
REMARK   26  A    between atoms: _72  and  _74
REMARK   27  A    between atoms: _74  and  _75
REMARK   28  A    between atoms: _74  and  _77
REMARK   29  A    between atoms: _77  and  _78
REMARK   30  A    between atoms: _81  and  _83
REMARK   31  A    between atoms: _83  and  _84
REMARK   32  A    between atoms: _86  and  _88
REMARK   33  A    between atoms: _88  and  _89
REMARK   34  A    between atoms: _88  and  _91
REMARK   35  A    between atoms: _93  and  _95
REMARK   36  A    between atoms: _95  and  _96
REMARK   37  A    between atoms: _95  and  _98
REMARK   38  A    between atoms: _98  and  _99
REMARK   39  A    between atoms: _102  and  _104
REMARK   40  A    between atoms: _104  and  _105
REMARK   41  A    between atoms: _104  and  _107
REMARK   42  A    between atoms: _107  and  _108
REMARK   43  A    between atoms: _110  and  _112
REMARK   44  A    between atoms: _112  and  _113
REMARK   45  A    between atoms: _112  and  _115
REMARK   46  A    between atoms: _115  and  _116
REMARK   47  A    between atoms: _122  and  _124
REMARK   48  A    between atoms: _124  and  _125
REMARK   49  A    between atoms: _124  and  _127
REMARK   50  A    between atoms: _127  and  _128
REMARK   51  A    between atoms: _128  and  _129
REMARK   52  A    between atoms: _133  and  _134
REMARK   53  A    between atoms: _139  and  _141
REMARK   54  A    between atoms: _141  and  _142
REMARK   55  A    between atoms: _141  and  _144
REMARK   56  A    between atoms: _144  and  _145
REMARK   57  A    between atoms: _145  and  _146
REMARK   58  A    between atoms: _148  and  _150
REMARK   59  A    between atoms: _150  and  _151
REMARK   60  A    between atoms: _150  and  _153
REMARK   61  A    between atoms: _153  and  _154
REMARK   62  A    between atoms: _164  and  _166
REMARK   63  A    between atoms: _166  and  _167
REMARK   64  A    between atoms: _166  and  _169
REMARK   65  A    between atoms: _169  and  _170
REMARK   66  A    between atoms: _170  and  _171
REMARK   67  A    between atoms: _174  and  _176
REMARK   68  A    between atoms: _176  and  _177
REMARK   69  A    between atoms: _176  and  _179
REMARK   70  A    between atoms: _179  and  _180
REMARK   71  A    between atoms: _183  and  _185
REMARK   72  A    between atoms: _185  and  _186
REMARK   73  A    between atoms: _185  and  _188
REMARK   74  A    between atoms: _188  and  _189
REMARK   75  A    between atoms: _194  and  _196
REMARK   76  A    between atoms: _196  and  _197
REMARK   77  A    between atoms: _196  and  _199
REMARK   78  A    between atoms: _199  and  _200
REMARK   79  A    between atoms: _200  and  _201
REMARK   80  A    between atoms: _201  and  _202
REMARK   81  A    between atoms: _211  and  _213
REMARK   82  A    between atoms: _213  and  _214
REMARK   83  A    between atoms: _213  and  _216
REMARK   84  A    between atoms: _216  and  _217
REMARK   85  A    between atoms: _220  and  _222
REMARK   86  A    between atoms: _222  and  _223
REMARK   87  A    between atoms: _222  and  _225
REMARK   88  A    between atoms: _228  and  _230
REMARK   89  A    between atoms: _230  and  _231
REMARK   90  A    between atoms: _230  and  _233
REMARK   91  A    between atoms: _233  and  _234
REMARK   92  A    between atoms: _241  and  _242
REMARK   93  A    between atoms: _241  and  _244
REMARK   94  A    between atoms: _247  and  _249
REMARK   95  A    between atoms: _249  and  _250
REMARK   96  A    between atoms: _249  and  _252
REMARK   97  A    between atoms: _252  and  _253
REMARK   98  A    between atoms: _253  and  _254
REMARK   99  A    between atoms: _254  and  _255
REMARK  100  A    between atoms: _264  and  _266
REMARK  101  A    between atoms: _266  and  _267
REMARK  102  A    between atoms: _270  and  _272
REMARK  103  A    between atoms: _272  and  _273
REMARK  104  A    between atoms: _272  and  _275
REMARK  105  A    between atoms: _275  and  _276
REMARK  106  A    between atoms: _276  and  _277
REMARK  107  A    between atoms: _277  and  _278
REMARK  108  A    between atoms: _278  and  _279
REMARK  109  A    between atoms: _283  and  _285
REMARK  110  A    between atoms: _285  and  _286
REMARK  111  A    between atoms: _288  and  _290
REMARK  112  A    between atoms: _290  and  _291
REMARK  113  A    between atoms: _290  and  _293
REMARK  114  A    between atoms: _293  and  _294
REMARK  115  A    between atoms: _294  and  _295
REMARK  116  A    between atoms: _295  and  _296
REMARK  117  A    between atoms: _296  and  _297
REMARK  118  A    between atoms: _301  and  _303
REMARK  119  A    between atoms: _303  and  _304
REMARK  120  A    between atoms: _303  and  _306
REMARK  121  A    between atoms: _306  and  _307
REMARK  122  A    between atoms: _317  and  _319
REMARK  123  A    between atoms: _319  and  _320
REMARK  124  A    between atoms: _319  and  _322
REMARK  125  A    between atoms: _322  and  _323
REMARK  126  A    between atoms: _328  and  _330
REMARK  127  A    between atoms: _330  and  _331
REMARK  128  A    between atoms: _330  and  _333
REMARK  129  A    between atoms: _333  and  _334
REMARK  130  A    between atoms: _337  and  _339
REMARK  131  A    between atoms: _339  and  _340
REMARK  132  A    between atoms: _339  and  _342
REMARK  133  A    between atoms: _342  and  _343
REMARK                            x       y       z     vdW  Elec       q    Type
REMARK                         _______ _______ _______ _____ _____    ______ ____
ROOT
ATOM      1  O   HOH     1      32.801   7.091  65.343  0.00  0.00    +0.000 OA
ENDROOT
TORSDOF 0
REMARK  Name = ../refined-set-2016/2v8w/2v8w_pocket.pdb
REMARK  133 active torsions:
REMARK  status: ('A' for Active; 'I' for Inactive)
REMARK    1  A    between atoms: _1  and  _3
REMARK    2  A    between atoms: _3  and  _4
REMARK    3  A    between atoms: _3  and  _6
REMARK    4  A    between atoms: _6  and  _7
REMARK    5  A    between atoms: _13  and  _15
REMARK    6  A    between atoms: _15  and  _16
REMARK    7  A    between atoms: _15  and  _18
REMARK    8  A    between atoms: _18  and  _19
REMARK    9  A    between atoms: _24  and  _26
REMARK   10  A    between atoms: _26  and  _27
REMARK   11  A    between atoms: _26  and  _29
REMARK   12  A    between atoms: _29  and  _30
REMARK   13  A    between atoms: _33  and  _35
REMARK   14  A    between atoms: _35  and  _36
REMARK   15  A    between atoms: _35  and  _38
REMARK   16  A    between atoms: _38  and  _39
REMARK   17  A    between atoms: _49  and  _51
REMARK   18  A    between atoms: _51  and  _52
REMARK   19  A    between atoms: _51  and  _54
REMARK   20  A    between atoms: _54  and  _55
REMARK   21  A    between atoms: _55  and  _56
REMARK   22  A    between atoms: _61  and  _63
REMARK   23  A    between atoms: _63  and  _64
REMARK   24  A    between atoms: _63  and  _66
REMARK   25  A    between atoms: _66  and  _67
REMARK   26  A    between atoms: _72  and  _74
REMARK   27  A    between atoms: _74  and  _75
REMARK   28  A    between atoms: _74  and  _77
REMARK   29  A    between atoms: _77  and  _78
REMARK   30  A    between atoms: _81  and  _83
REMARK   31  A    between atoms: _83  and  _84
REMARK   32  A    between atoms: _86  and  _88
REMARK   33  A    between atoms: _88  and  _89
REMARK   34  A    between atoms: _88  and  _91
REMARK   35  A    between atoms: _93  and  _95
REMARK   36  A    between atoms: _95  and  _96
REMARK   37  A    between atoms: _95  and  _98
REMARK   38  A    between atoms: _98  and  _99
REMARK   39  A    between atoms: _102  and  _104
REMARK   40  A    between atoms: _104  and  _105
REMARK   41  A    between atoms: _104  and  _107
REMARK   42  A    between atoms: _107  and  _108
REMARK   43  A    between atoms: _110  and  _112
REMARK   44  A    between atoms: _112  and  _113
REMARK   45  A    between atoms: _112  and  _115
REMARK   46  A    between atoms: _115  and  _116
REMARK   47  A    between atoms: _122  and  _124
REMARK   48  A    between atoms: _124  and  _125
REMARK   49  A    between atoms: _124  and  _127
REMARK   50  A    between atoms: _127  and  _128
REMARK   51  A    between atoms: _128  and  _129
REMARK   52  A    between atoms: _133  and  _134
REMARK   53  A    between atoms: _139  and  _141
REMARK   54  A    between atoms: _141  and  _142
REMARK   55  A    between atoms: _141  and  _144
REMARK   56  A    between atoms: _144  and  _145
REMARK   57  A    between atoms: _145  and  _146
REMARK   58  A    between atoms: _148  and  _150
REMARK   59  A    between atoms: _150  and  _151
REMARK   60  A    between atoms: _150  and  _153
REMARK   61  A    between atoms: _153  and  _154
REMARK   62  A    between atoms: _164  and  _166
REMARK   63  A    between atoms: _166  and  _167
REMARK   64  A    between atoms: _166  and  _169
REMARK   65  A    between atoms: _169  and  _170
REMARK   66  A    between atoms: _170  and  _171
REMARK   67  A    between atoms: _174  and  _176
REMARK   68  A    between atoms: _176  and  _177
REMARK   69  A    between atoms: _176  and  _179
REMARK   70  A    between atoms: _179  and  _180
REMARK   71  A    between atoms: _183  and  _185
REMARK   72  A    between atoms: _185  and  _186
REMARK   73  A    between atoms: _185  and  _188
REMARK   74  A    between atoms: _188  and  _189
REMARK   75  A    between atoms: _194  and  _196
REMARK   76  A    between atoms: _196  and  _197
REMARK   77  A    between atoms: _196  and  _199
REMARK   78  A    between atoms: _199  and  _200
REMARK   79  A    between atoms: _200  and  _201
REMARK   80  A    between atoms: _201  and  _202
REMARK   81  A    between atoms: _211  and  _213
REMARK   82  A    between atoms: _213  and  _214
REMARK   83  A    between atoms: _213  and  _216
REMARK   84  A    between atoms: _216  and  _217
REMARK   85  A    between atoms: _220  and  _222
REMARK   86  A    between atoms: _222  and  _223
REMARK   87  A    between atoms: _222  and  _225
REMARK   88  A    between atoms: _228  and  _230
REMARK   89  A    between atoms: _230  and  _231
REMARK   90  A    between atoms: _230  and  _233
REMARK   91  A    between atoms: _233  and  _234
REMARK   92  A    between atoms: _241  and  _242
REMARK   93  A    between atoms: _241  and  _244
REMARK   94  A    between atoms: _247  and  _249
REMARK   95  A    between atoms: _249  and  _250
REMARK   96  A    between atoms: _249  and  _252
REMARK   97  A    between atoms: _252  and  _253
REMARK   98  A    between atoms: _253  and  _254
REMARK   99  A    between atoms: _254  and  _255
REMARK  100  A    between atoms: _264  and  _266
REMARK  101  A    between atoms: _266  and  _267
REMARK  102  A    between atoms: _270  and  _272
REMARK  103  A    between atoms: _272  and  _273
REMARK  104  A    between atoms: _272  and  _275
REMARK  105  A    between atoms: _275  and  _276
REMARK  106  A    between atoms: _276  and  _277
REMARK  107  A    between atoms: _277  and  _278
REMARK  108  A    between atoms: _278  and  _279
REMARK  109  A    between atoms: _283  and  _285
REMARK  110  A    between atoms: _285  and  _286
REMARK  111  A    between atoms: _288  and  _290
REMARK  112  A    between atoms: _290  and  _291
REMARK  113  A    between atoms: _290  and  _293
REMARK  114  A    between atoms: _293  and  _294
REMARK  115  A    between atoms: _294  and  _295
REMARK  116  A    between atoms: _295  and  _296
REMARK  117  A    between atoms: _296  and  _297
REMARK  118  A    between atoms: _301  and  _303
REMARK  119  A    between atoms: _303  and  _304
REMARK  120  A    between atoms: _303  and  _306
REMARK  121  A    between atoms: _306  and  _307
REMARK  122  A    between atoms: _317  and  _319
REMARK  123  A    between atoms: _319  and  _320
REMARK  124  A    between atoms: _319  and  _322
REMARK  125  A    between atoms: _322  and  _323
REMARK  126  A    between atoms: _328  and  _330
REMARK  127  A    between atoms: _330  and  _331
REMARK  128  A    between atoms: _330  and  _333
REMARK  129  A    between atoms: _333  and  _334
REMARK  130  A    between atoms: _337  and  _339
REMARK  131  A    between atoms: _339  and  _340
REMARK  132  A    between atoms: _339  and  _342
REMARK  133  A    between atoms: _342  and  _343
REMARK                            x       y       z     vdW  Elec       q    Type
REMARK                         _______ _______ _______ _____ _____    ______ ____
ROOT
ATOM      1  O   HOH     1      37.159  14.601  65.533  0.00  0.00    +0.000 OA
ENDROOT
TORSDOF 0
REMARK  Name = ../refined-set-2016/2v8w/2v8w_pocket.pdb
REMARK  133 active torsions:
REMARK  status: ('A' for Active; 'I' for Inactive)
REMARK    1  A    between atoms: _1  and  _3
REMARK    2  A    between atoms: _3  and  _4
REMARK    3  A    between atoms: _3  and  _6
REMARK    4  A    between atoms: _6  and  _7
REMARK    5  A    between atoms: _13  and  _15
REMARK    6  A    between atoms: _15  and  _16
REMARK    7  A    between atoms: _15  and  _18
REMARK    8  A    between atoms: _18  and  _19
REMARK    9  A    between atoms: _24  and  _26
REMARK   10  A    between atoms: _26  and  _27
REMARK   11  A    between atoms: _26  and  _29
REMARK   12  A    between atoms: _29  and  _30
REMARK   13  A    between atoms: _33  and  _35
REMARK   14  A    between atoms: _35  and  _36
REMARK   15  A    between atoms: _35  and  _38
REMARK   16  A    between atoms: _38  and  _39
REMARK   17  A    between atoms: _49  and  _51
REMARK   18  A    between atoms: _51  and  _52
REMARK   19  A    between atoms: _51  and  _54
REMARK   20  A    between atoms: _54  and  _55
REMARK   21  A    between atoms: _55  and  _56
REMARK   22  A    between atoms: _61  and  _63
REMARK   23  A    between atoms: _63  and  _64
REMARK   24  A    between atoms: _63  and  _66
REMARK   25  A    between atoms: _66  and  _67
REMARK   26  A    between atoms: _72  and  _74
REMARK   27  A    between atoms: _74  and  _75
REMARK   28  A    between atoms: _74  and  _77
REMARK   29  A    between atoms: _77  and  _78
REMARK   30  A    between atoms: _81  and  _83
REMARK   31  A    between atoms: _83  and  _84
REMARK   32  A    between atoms: _86  and  _88
REMARK   33  A    between atoms: _88  and  _89
REMARK   34  A    between atoms: _88  and  _91
REMARK   35  A    between atoms: _93  and  _95
REMARK   36  A    between atoms: _95  and  _96
REMARK   37  A    between atoms: _95  and  _98
REMARK   38  A    between atoms: _98  and  _99
REMARK   39  A    between atoms: _102  and  _104
REMARK   40  A    between atoms: _104  and  _105
REMARK   41  A    between atoms: _104  and  _107
REMARK   42  A    between atoms: _107  and  _108
REMARK   43  A    between atoms: _110  and  _112
REMARK   44  A    between atoms: _112  and  _113
REMARK   45  A    between atoms: _112  and  _115
REMARK   46  A    between atoms: _115  and  _116
REMARK   47  A    between atoms: _122  and  _124
REMARK   48  A    between atoms: _124  and  _125
REMARK   49  A    between atoms: _124  and  _127
REMARK   50  A    between atoms: _127  and  _128
REMARK   51  A    between atoms: _128  and  _129
REMARK   52  A    between atoms: _133  and  _134
REMARK   53  A    between atoms: _139  and  _141
REMARK   54  A    between atoms: _141  and  _142
REMARK   55  A    between atoms: _141  and  _144
REMARK   56  A    between atoms: _144  and  _145
REMARK   57  A    between atoms: _145  and  _146
REMARK   58  A    between atoms: _148  and  _150
REMARK   59  A    between atoms: _150  and  _151
REMARK   60  A    between atoms: _150  and  _153
REMARK   61  A    between atoms: _153  and  _154
REMARK   62  A    between atoms: _164  and  _166
REMARK   63  A    between atoms: _166  and  _167
REMARK   64  A    between atoms: _166  and  _169
REMARK   65  A    between atoms: _169  and  _170
REMARK   66  A    between atoms: _170  and  _171
REMARK   67  A    between atoms: _174  and  _176
REMARK   68  A    between atoms: _176  and  _177
REMARK   69  A    between atoms: _176  and  _179
REMARK   70  A    between atoms: _179  and  _180
REMARK   71  A    between atoms: _183  and  _185
REMARK   72  A    between atoms: _185  and  _186
REMARK   73  A    between atoms: _185  and  _188
REMARK   74  A    between atoms: _188  and  _189
REMARK   75  A    between atoms: _194  and  _196
REMARK   76  A    between atoms: _196  and  _197
REMARK   77  A    between atoms: _196  and  _199
REMARK   78  A    between atoms: _199  and  _200
REMARK   79  A    between atoms: _200  and  _201
REMARK   80  A    between atoms: _201  and  _202
REMARK   81  A    between atoms: _211  and  _213
REMARK   82  A    between atoms: _213  and  _214
REMARK   83  A    between atoms: _213  and  _216
REMARK   84  A    between atoms: _216  and  _217
REMARK   85  A    between atoms: _220  and  _222
REMARK   86  A    between atoms: _222  and  _223
REMARK   87  A    between atoms: _222  and  _225
REMARK   88  A    between atoms: _228  and  _230
REMARK   89  A    between atoms: _230  and  _231
REMARK   90  A    between atoms: _230  and  _233
REMARK   91  A    between atoms: _233  and  _234
REMARK   92  A    between atoms: _241  and  _242
REMARK   93  A    between atoms: _241  and  _244
REMARK   94  A    between atoms: _247  and  _249
REMARK   95  A    between atoms: _249  and  _250
REMARK   96  A    between atoms: _249  and  _252
REMARK   97  A    between atoms: _252  and  _253
REMARK   98  A    between atoms: _253  and  _254
REMARK   99  A    between atoms: _254  and  _255
REMARK  100  A    between atoms: _264  and  _266
REMARK  101  A    between atoms: _266  and  _267
REMARK  102  A    between atoms: _270  and  _272
REMARK  103  A    between atoms: _272  and  _273
REMARK  104  A    between atoms: _272  and  _275
REMARK  105  A    between atoms: _275  and  _276
REMARK  106  A    between atoms: _276  and  _277
REMARK  107  A    between atoms: _277  and  _278
REMARK  108  A    between atoms: _278  and  _279
REMARK  109  A    between atoms: _283  and  _285
REMARK  110  A    between atoms: _285  and  _286
REMARK  111  A    between atoms: _288  and  _290
REMARK  112  A    between atoms: _290  and  _291
REMARK  113  A    between atoms: _290  and  _293
REMARK  114  A    between atoms: _293  and  _294
REMARK  115  A    between atoms: _294  and  _295
REMARK  116  A    between atoms: _295  and  _296
REMARK  117  A    between atoms: _296  and  _297
REMARK  118  A    between atoms: _301  and  _303
REMARK  119  A    between atoms: _303  and  _304
REMARK  120  A    between atoms: _303  and  _306
REMARK  121  A    between atoms: _306  and  _307
REMARK  122  A    between atoms: _317  and  _319
REMARK  123  A    between atoms: _319  and  _320
REMARK  124  A    between atoms: _319  and  _322
REMARK  125  A    between atoms: _322  and  _323
REMARK  126  A    between atoms: _328  and  _330
REMARK  127  A    between atoms: _330  and  _331
REMARK  128  A    between atoms: _330  and  _333
REMARK  129  A    between atoms: _333  and  _334
REMARK  130  A    between atoms: _337  and  _339
REMARK  131  A    between atoms: _339  and  _340
REMARK  132  A    between atoms: _339  and  _342
REMARK  133  A    between atoms: _342  and  _343
REMARK                            x       y       z     vdW  Elec       q    Type
REMARK                         _______ _______ _______ _____ _____    ______ ____
ROOT
ATOM      1  O   HOH     1      27.596  11.949  58.751  0.00  0.00    +0.000 OA
ENDROOT
TORSDOF 0
REMARK  Name = ../refined-set-2016/2v8w/2v8w_pocket.pdb
REMARK  133 active torsions:
REMARK  status: ('A' for Active; 'I' for Inactive)
REMARK    1  A    between atoms: _1  and  _3
REMARK    2  A    between atoms: _3  and  _4
REMARK    3  A    between atoms: _3  and  _6
REMARK    4  A    between atoms: _6  and  _7
REMARK    5  A    between atoms: _13  and  _15
REMARK    6  A    between atoms: _15  and  _16
REMARK    7  A    between atoms: _15  and  _18
REMARK    8  A    between atoms: _18  and  _19
REMARK    9  A    between atoms: _24  and  _26
REMARK   10  A    between atoms: _26  and  _27
REMARK   11  A    between atoms: _26  and  _29
REMARK   12  A    between atoms: _29  and  _30
REMARK   13  A    between atoms: _33  and  _35
REMARK   14  A    between atoms: _35  and  _36
REMARK   15  A    between atoms: _35  and  _38
REMARK   16  A    between atoms: _38  and  _39
REMARK   17  A    between atoms: _49  and  _51
REMARK   18  A    between atoms: _51  and  _52
REMARK   19  A    between atoms: _51  and  _54
REMARK   20  A    between atoms: _54  and  _55
REMARK   21  A    between atoms: _55  and  _56
REMARK   22  A    between atoms: _61  and  _63
REMARK   23  A    between atoms: _63  and  _64
REMARK   24  A    between atoms: _63  and  _66
REMARK   25  A    between atoms: _66  and  _67
REMARK   26  A    between atoms: _72  and  _74
REMARK   27  A    between atoms: _74  and  _75
REMARK   28  A    between atoms: _74  and  _77
REMARK   29  A    between atoms: _77  and  _78
REMARK   30  A    between atoms: _81  and  _83
REMARK   31  A    between atoms: _83  and  _84
REMARK   32  A    between atoms: _86  and  _88
REMARK   33  A    between atoms: _88  and  _89
REMARK   34  A    between atoms: _88  and  _91
REMARK   35  A    between atoms: _93  and  _95
REMARK   36  A    between atoms: _95  and  _96
REMARK   37  A    between atoms: _95  and  _98
REMARK   38  A    between atoms: _98  and  _99
REMARK   39  A    between atoms: _102  and  _104
REMARK   40  A    between atoms: _104  and  _105
REMARK   41  A    between atoms: _104  and  _107
REMARK   42  A    between atoms: _107  and  _108
REMARK   43  A    between atoms: _110  and  _112
REMARK   44  A    between atoms: _112  and  _113
REMARK   45  A    between atoms: _112  and  _115
REMARK   46  A    between atoms: _115  and  _116
REMARK   47  A    between atoms: _122  and  _124
REMARK   48  A    between atoms: _124  and  _125
REMARK   49  A    between atoms: _124  and  _127
REMARK   50  A    between atoms: _127  and  _128
REMARK   51  A    between atoms: _128  and  _129
REMARK   52  A    between atoms: _133  and  _134
REMARK   53  A    between atoms: _139  and  _141
REMARK   54  A    between atoms: _141  and  _142
REMARK   55  A    between atoms: _141  and  _144
REMARK   56  A    between atoms: _144  and  _145
REMARK   57  A    between atoms: _145  and  _146
REMARK   58  A    between atoms: _148  and  _150
REMARK   59  A    between atoms: _150  and  _151
REMARK   60  A    between atoms: _150  and  _153
REMARK   61  A    between atoms: _153  and  _154
REMARK   62  A    between atoms: _164  and  _166
REMARK   63  A    between atoms: _166  and  _167
REMARK   64  A    between atoms: _166  and  _169
REMARK   65  A    between atoms: _169  and  _170
REMARK   66  A    between atoms: _170  and  _171
REMARK   67  A    between atoms: _174  and  _176
REMARK   68  A    between atoms: _176  and  _177
REMARK   69  A    between atoms: _176  and  _179
REMARK   70  A    between atoms: _179  and  _180
REMARK   71  A    between atoms: _183  and  _185
REMARK   72  A    between atoms: _185  and  _186
REMARK   73  A    between atoms: _185  and  _188
REMARK   74  A    between atoms: _188  and  _189
REMARK   75  A    between atoms: _194  and  _196
REMARK   76  A    between atoms: _196  and  _197
REMARK   77  A    between atoms: _196  and  _199
REMARK   78  A    between atoms: _199  and  _200
REMARK   79  A    between atoms: _200  and  _201
REMARK   80  A    between atoms: _201  and  _202
REMARK   81  A    between atoms: _211  and  _213
REMARK   82  A    between atoms: _213  and  _214
REMARK   83  A    between atoms: _213  and  _216
REMARK   84  A    between atoms: _216  and  _217
REMARK   85  A    between atoms: _220  and  _222
REMARK   86  A    between atoms: _222  and  _223
REMARK   87  A    between atoms: _222  and  _225
REMARK   88  A    between atoms: _228  and  _230
REMARK   89  A    between atoms: _230  and  _231
REMARK   90  A    between atoms: _230  and  _233
REMARK   91  A    between atoms: _233  and  _234
REMARK   92  A    between atoms: _241  and  _242
REMARK   93  A    between atoms: _241  and  _244
REMARK   94  A    between atoms: _247  and  _249
REMARK   95  A    between atoms: _249  and  _250
REMARK   96  A    between atoms: _249  and  _252
REMARK   97  A    between atoms: _252  and  _253
REMARK   98  A    between atoms: _253  and  _254
REMARK   99  A    between atoms: _254  and  _255
REMARK  100  A    between atoms: _264  and  _266
REMARK  101  A    between atoms: _266  and  _267
REMARK  102  A    between atoms: _270  and  _272
REMARK  103  A    between atoms: _272  and  _273
REMARK  104  A    between atoms: _272  and  _275
REMARK  105  A    between atoms: _275  and  _276
REMARK  106  A    between atoms: _276  and  _277
REMARK  107  A    between atoms: _277  and  _278
REMARK  108  A    between atoms: _278  and  _279
REMARK  109  A    between atoms: _283  and  _285
REMARK  110  A    between atoms: _285  and  _286
REMARK  111  A    between atoms: _288  and  _290
REMARK  112  A    between atoms: _290  and  _291
REMARK  113  A    between atoms: _290  and  _293
REMARK  114  A    between atoms: _293  and  _294
REMARK  115  A    between atoms: _294  and  _295
REMARK  116  A    between atoms: _295  and  _296
REMARK  117  A    between atoms: _296  and  _297
REMARK  118  A    between atoms: _301  and  _303
REMARK  119  A    between atoms: _303  and  _304
REMARK  120  A    between atoms: _303  and  _306
REMARK  121  A    between atoms: _306  and  _307
REMARK  122  A    between atoms: _317  and  _319
REMARK  123  A    between atoms: _319  and  _320
REMARK  124  A    between atoms: _319  and  _322
REMARK  125  A    between atoms: _322  and  _323
REMARK  126  A    between atoms: _328  and  _330
REMARK  127  A    between atoms: _330  and  _331
REMARK  128  A    between atoms: _330  and  _333
REMARK  129  A    between atoms: _333  and  _334
REMARK  130  A    between atoms: _337  and  _339
REMARK  131  A    between atoms: _339  and  _340
REMARK  132  A    between atoms: _339  and  _342
REMARK  133  A    between atoms: _342  and  _343
REMARK                            x       y       z     vdW  Elec       q    Type
REMARK                         _______ _______ _______ _____ _____    ______ ____
ROOT
ATOM      1  O   HOH     1      31.646  11.223  59.638  0.00  0.00    +0.000 OA
ENDROOT
TORSDOF 0
REMARK  Name = ../refined-set-2016/2v8w/2v8w_pocket.pdb
REMARK  133 active torsions:
REMARK  status: ('A' for Active; 'I' for Inactive)
REMARK    1  A    between atoms: _1  and  _3
REMARK    2  A    between atoms: _3  and  _4
REMARK    3  A    between atoms: _3  and  _6
REMARK    4  A    between atoms: _6  and  _7
REMARK    5  A    between atoms: _13  and  _15
REMARK    6  A    between atoms: _15  and  _16
REMARK    7  A    between atoms: _15  and  _18
REMARK    8  A    between atoms: _18  and  _19
REMARK    9  A    between atoms: _24  and  _26
REMARK   10  A    between atoms: _26  and  _27
REMARK   11  A    between atoms: _26  and  _29
REMARK   12  A    between atoms: _29  and  _30
REMARK   13  A    between atoms: _33  and  _35
REMARK   14  A    between atoms: _35  and  _36
REMARK   15  A    between atoms: _35  and  _38
REMARK   16  A    between atoms: _38  and  _39
REMARK   17  A    between atoms: _49  and  _51
REMARK   18  A    between atoms: _51  and  _52
REMARK   19  A    between atoms: _51  and  _54
REMARK   20  A    between atoms: _54  and  _55
REMARK   21  A    between atoms: _55  and  _56
REMARK   22  A    between atoms: _61  and  _63
REMARK   23  A    between atoms: _63  and  _64
REMARK   24  A    between atoms: _63  and  _66
REMARK   25  A    between atoms: _66  and  _67
REMARK   26  A    between atoms: _72  and  _74
REMARK   27  A    between atoms: _74  and  _75
REMARK   28  A    between atoms: _74  and  _77
REMARK   29  A    between atoms: _77  and  _78
REMARK   30  A    between atoms: _81  and  _83
REMARK   31  A    between atoms: _83  and  _84
REMARK   32  A    between atoms: _86  and  _88
REMARK   33  A    between atoms: _88  and  _89
REMARK   34  A    between atoms: _88  and  _91
REMARK   35  A    between atoms: _93  and  _95
REMARK   36  A    between atoms: _95  and  _96
REMARK   37  A    between atoms: _95  and  _98
REMARK   38  A    between atoms: _98  and  _99
REMARK   39  A    between atoms: _102  and  _104
REMARK   40  A    between atoms: _104  and  _105
REMARK   41  A    between atoms: _104  and  _107
REMARK   42  A    between atoms: _107  and  _108
REMARK   43  A    between atoms: _110  and  _112
REMARK   44  A    between atoms: _112  and  _113
REMARK   45  A    between atoms: _112  and  _115
REMARK   46  A    between atoms: _115  and  _116
REMARK   47  A    between atoms: _122  and  _124
REMARK   48  A    between atoms: _124  and  _125
REMARK   49  A    between atoms: _124  and  _127
REMARK   50  A    between atoms: _127  and  _128
REMARK   51  A    between atoms: _128  and  _129
REMARK   52  A    between atoms: _133  and  _134
REMARK   53  A    between atoms: _139  and  _141
REMARK   54  A    between atoms: _141  and  _142
REMARK   55  A    between atoms: _141  and  _144
REMARK   56  A    between atoms: _144  and  _145
REMARK   57  A    between atoms: _145  and  _146
REMARK   58  A    between atoms: _148  and  _150
REMARK   59  A    between atoms: _150  and  _151
REMARK   60  A    between atoms: _150  and  _153
REMARK   61  A    between atoms: _153  and  _154
REMARK   62  A    between atoms: _164  and  _166
REMARK   63  A    between atoms: _166  and  _167
REMARK   64  A    between atoms: _166  and  _169
REMARK   65  A    between atoms: _169  and  _170
REMARK   66  A    between atoms: _170  and  _171
REMARK   67  A    between atoms: _174  and  _176
REMARK   68  A    between atoms: _176  and  _177
REMARK   69  A    between atoms: _176  and  _179
REMARK   70  A    between atoms: _179  and  _180
REMARK   71  A    between atoms: _183  and  _185
REMARK   72  A    between atoms: _185  and  _186
REMARK   73  A    between atoms: _185  and  _188
REMARK   74  A    between atoms: _188  and  _189
REMARK   75  A    between atoms: _194  and  _196
REMARK   76  A    between atoms: _196  and  _197
REMARK   77  A    between atoms: _196  and  _199
REMARK   78  A    between atoms: _199  and  _200
REMARK   79  A    between atoms: _200  and  _201
REMARK   80  A    between atoms: _201  and  _202
REMARK   81  A    between atoms: _211  and  _213
REMARK   82  A    between atoms: _213  and  _214
REMARK   83  A    between atoms: _213  and  _216
REMARK   84  A    between atoms: _216  and  _217
REMARK   85  A    between atoms: _220  and  _222
REMARK   86  A    between atoms: _222  and  _223
REMARK   87  A    between atoms: _222  and  _225
REMARK   88  A    between atoms: _228  and  _230
REMARK   89  A    between atoms: _230  and  _231
REMARK   90  A    between atoms: _230  and  _233
REMARK   91  A    between atoms: _233  and  _234
REMARK   92  A    between atoms: _241  and  _242
REMARK   93  A    between atoms: _241  and  _244
REMARK   94  A    between atoms: _247  and  _249
REMARK   95  A    between atoms: _249  and  _250
REMARK   96  A    between atoms: _249  and  _252
REMARK   97  A    between atoms: _252  and  _253
REMARK   98  A    between atoms: _253  and  _254
REMARK   99  A    between atoms: _254  and  _255
REMARK  100  A    between atoms: _264  and  _266
REMARK  101  A    between atoms: _266  and  _267
REMARK  102  A    between atoms: _270  and  _272
REMARK  103  A    between atoms: _272  and  _273
REMARK  104  A    between atoms: _272  and  _275
REMARK  105  A    between atoms: _275  and  _276
REMARK  106  A    between atoms: _276  and  _277
REMARK  107  A    between atoms: _277  and  _278
REMARK  108  A    between atoms: _278  and  _279
REMARK  109  A    between atoms: _283  and  _285
REMARK  110  A    between atoms: _285  and  _286
REMARK  111  A    between atoms: _288  and  _290
REMARK  112  A    between atoms: _290  and  _291
REMARK  113  A    between atoms: _290  and  _293
REMARK  114  A    between atoms: _293  and  _294
REMARK  115  A    between atoms: _294  and  _295
REMARK  116  A    between atoms: _295  and  _296
REMARK  117  A    between atoms: _296  and  _297
REMARK  118  A    between atoms: _301  and  _303
REMARK  119  A    between atoms: _303  and  _304
REMARK  120  A    between atoms: _303  and  _306
REMARK  121  A    between atoms: _306  and  _307
REMARK  122  A    between atoms: _317  and  _319
REMARK  123  A    between atoms: _319  and  _320
REMARK  124  A    between atoms: _319  and  _322
REMARK  125  A    between atoms: _322  and  _323
REMARK  126  A    between atoms: _328  and  _330
REMARK  127  A    between atoms: _330  and  _331
REMARK  128  A    between atoms: _330  and  _333
REMARK  129  A    between atoms: _333  and  _334
REMARK  130  A    between atoms: _337  and  _339
REMARK  131  A    between atoms: _339  and  _340
REMARK  132  A    between atoms: _339  and  _342
REMARK  133  A    between atoms: _342  and  _343
REMARK                            x       y       z     vdW  Elec       q    Type
REMARK                         _______ _______ _______ _____ _____    ______ ____
ROOT
ATOM      1  O   HOH     1      27.450  12.022  56.046  0.00  0.00    +0.000 OA
ENDROOT
TORSDOF 0
REMARK  Name = ../refined-set-2016/2v8w/2v8w_pocket.pdb
REMARK  133 active torsions:
REMARK  status: ('A' for Active; 'I' for Inactive)
REMARK    1  A    between atoms: _1  and  _3
REMARK    2  A    between atoms: _3  and  _4
REMARK    3  A    between atoms: _3  and  _6
REMARK    4  A    between atoms: _6  and  _7
REMARK    5  A    between atoms: _13  and  _15
REMARK    6  A    between atoms: _15  and  _16
REMARK    7  A    between atoms: _15  and  _18
REMARK    8  A    between atoms: _18  and  _19
REMARK    9  A    between atoms: _24  and  _26
REMARK   10  A    between atoms: _26  and  _27
REMARK   11  A    between atoms: _26  and  _29
REMARK   12  A    between atoms: _29  and  _30
REMARK   13  A    between atoms: _33  and  _35
REMARK   14  A    between atoms: _35  and  _36
REMARK   15  A    between atoms: _35  and  _38
REMARK   16  A    between atoms: _38  and  _39
REMARK   17  A    between atoms: _49  and  _51
REMARK   18  A    between atoms: _51  and  _52
REMARK   19  A    between atoms: _51  and  _54
REMARK   20  A    between atoms: _54  and  _55
REMARK   21  A    between atoms: _55  and  _56
REMARK   22  A    between atoms: _61  and  _63
REMARK   23  A    between atoms: _63  and  _64
REMARK   24  A    between atoms: _63  and  _66
REMARK   25  A    between atoms: _66  and  _67
REMARK   26  A    between atoms: _72  and  _74
REMARK   27  A    between atoms: _74  and  _75
REMARK   28  A    between atoms: _74  and  _77
REMARK   29  A    between atoms: _77  and  _78
REMARK   30  A    between atoms: _81  and  _83
REMARK   31  A    between atoms: _83  and  _84
REMARK   32  A    between atoms: _86  and  _88
REMARK   33  A    between atoms: _88  and  _89
REMARK   34  A    between atoms: _88  and  _91
REMARK   35  A    between atoms: _93  and  _95
REMARK   36  A    between atoms: _95  and  _96
REMARK   37  A    between atoms: _95  and  _98
REMARK   38  A    between atoms: _98  and  _99
REMARK   39  A    between atoms: _102  and  _104
REMARK   40  A    between atoms: _104  and  _105
REMARK   41  A    between atoms: _104  and  _107
REMARK   42  A    between atoms: _107  and  _108
REMARK   43  A    between atoms: _110  and  _112
REMARK   44  A    between atoms: _112  and  _113
REMARK   45  A    between atoms: _112  and  _115
REMARK   46  A    between atoms: _115  and  _116
REMARK   47  A    between atoms: _122  and  _124
REMARK   48  A    between atoms: _124  and  _125
REMARK   49  A    between atoms: _124  and  _127
REMARK   50  A    between atoms: _127  and  _128
REMARK   51  A    between atoms: _128  and  _129
REMARK   52  A    between atoms: _133  and  _134
REMARK   53  A    between atoms: _139  and  _141
REMARK   54  A    between atoms: _141  and  _142
REMARK   55  A    between atoms: _141  and  _144
REMARK   56  A    between atoms: _144  and  _145
REMARK   57  A    between atoms: _145  and  _146
REMARK   58  A    between atoms: _148  and  _150
REMARK   59  A    between atoms: _150  and  _151
REMARK   60  A    between atoms: _150  and  _153
REMARK   61  A    between atoms: _153  and  _154
REMARK   62  A    between atoms: _164  and  _166
REMARK   63  A    between atoms: _166  and  _167
REMARK   64  A    between atoms: _166  and  _169
REMARK   65  A    between atoms: _169  and  _170
REMARK   66  A    between atoms: _170  and  _171
REMARK   67  A    between atoms: _174  and  _176
REMARK   68  A    between atoms: _176  and  _177
REMARK   69  A    between atoms: _176  and  _179
REMARK   70  A    between atoms: _179  and  _180
REMARK   71  A    between atoms: _183  and  _185
REMARK   72  A    between atoms: _185  and  _186
REMARK   73  A    between atoms: _185  and  _188
REMARK   74  A    between atoms: _188  and  _189
REMARK   75  A    between atoms: _194  and  _196
REMARK   76  A    between atoms: _196  and  _197
REMARK   77  A    between atoms: _196  and  _199
REMARK   78  A    between atoms: _199  and  _200
REMARK   79  A    between atoms: _200  and  _201
REMARK   80  A    between atoms: _201  and  _202
REMARK   81  A    between atoms: _211  and  _213
REMARK   82  A    between atoms: _213  and  _214
REMARK   83  A    between atoms: _213  and  _216
REMARK   84  A    between atoms: _216  and  _217
REMARK   85  A    between atoms: _220  and  _222
REMARK   86  A    between atoms: _222  and  _223
REMARK   87  A    between atoms: _222  and  _225
REMARK   88  A    between atoms: _228  and  _230
REMARK   89  A    between atoms: _230  and  _231
REMARK   90  A    between atoms: _230  and  _233
REMARK   91  A    between atoms: _233  and  _234
REMARK   92  A    between atoms: _241  and  _242
REMARK   93  A    between atoms: _241  and  _244
REMARK   94  A    between atoms: _247  and  _249
REMARK   95  A    between atoms: _249  and  _250
REMARK   96  A    between atoms: _249  and  _252
REMARK   97  A    between atoms: _252  and  _253
REMARK   98  A    between atoms: _253  and  _254
REMARK   99  A    between atoms: _254  and  _255
REMARK  100  A    between atoms: _264  and  _266
REMARK  101  A    between atoms: _266  and  _267
REMARK  102  A    between atoms: _270  and  _272
REMARK  103  A    between atoms: _272  and  _273
REMARK  104  A    between atoms: _272  and  _275
REMARK  105  A    between atoms: _275  and  _276
REMARK  106  A    between atoms: _276  and  _277
REMARK  107  A    between atoms: _277  and  _278
REMARK  108  A    between atoms: _278  and  _279
REMARK  109  A    between atoms: _283  and  _285
REMARK  110  A    between atoms: _285  and  _286
REMARK  111  A    between atoms: _288  and  _290
REMARK  112  A    between atoms: _290  and  _291
REMARK  113  A    between atoms: _290  and  _293
REMARK  114  A    between atoms: _293  and  _294
REMARK  115  A    between atoms: _294  and  _295
REMARK  116  A    between atoms: _295  and  _296
REMARK  117  A    between atoms: _296  and  _297
REMARK  118  A    between atoms: _301  and  _303
REMARK  119  A    between atoms: _303  and  _304
REMARK  120  A    between atoms: _303  and  _306
REMARK  121  A    between atoms: _306  and  _307
REMARK  122  A    between atoms: _317  and  _319
REMARK  123  A    between atoms: _319  and  _320
REMARK  124  A    between atoms: _319  and  _322
REMARK  125  A    between atoms: _322  and  _323
REMARK  126  A    between atoms: _328  and  _330
REMARK  127  A    between atoms: _330  and  _331
REMARK  128  A    between atoms: _330  and  _333
REMARK  129  A    between atoms: _333  and  _334
REMARK  130  A    between atoms: _337  and  _339
REMARK  131  A    between atoms: _339  and  _340
REMARK  132  A    between atoms: _339  and  _342
REMARK  133  A    between atoms: _342  and  _343
REMARK                            x       y       z     vdW  Elec       q    Type
REMARK                         _______ _______ _______ _____ _____    ______ ____
ROOT
ATOM      1  O   HOH     1      33.251  11.816  52.068  0.00  0.00    +0.000 OA
ENDROOT
TORSDOF 0
REMARK  Name = ../refined-set-2016/2v8w/2v8w_pocket.pdb
REMARK  133 active torsions:
REMARK  status: ('A' for Active; 'I' for Inactive)
REMARK    1  A    between atoms: _1  and  _3
REMARK    2  A    between atoms: _3  and  _4
REMARK    3  A    between atoms: _3  and  _6
REMARK    4  A    between atoms: _6  and  _7
REMARK    5  A    between atoms: _13  and  _15
REMARK    6  A    between atoms: _15  and  _16
REMARK    7  A    between atoms: _15  and  _18
REMARK    8  A    between atoms: _18  and  _19
REMARK    9  A    between atoms: _24  and  _26
REMARK   10  A    between atoms: _26  and  _27
REMARK   11  A    between atoms: _26  and  _29
REMARK   12  A    between atoms: _29  and  _30
REMARK   13  A    between atoms: _33  and  _35
REMARK   14  A    between atoms: _35  and  _36
REMARK   15  A    between atoms: _35  and  _38
REMARK   16  A    between atoms: _38  and  _39
REMARK   17  A    between atoms: _49  and  _51
REMARK   18  A    between atoms: _51  and  _52
REMARK   19  A    between atoms: _51  and  _54
REMARK   20  A    between atoms: _54  and  _55
REMARK   21  A    between atoms: _55  and  _56
REMARK   22  A    between atoms: _61  and  _63
REMARK   23  A    between atoms: _63  and  _64
REMARK   24  A    between atoms: _63  and  _66
REMARK   25  A    between atoms: _66  and  _67
REMARK   26  A    between atoms: _72  and  _74
REMARK   27  A    between atoms: _74  and  _75
REMARK   28  A    between atoms: _74  and  _77
REMARK   29  A    between atoms: _77  and  _78
REMARK   30  A    between atoms: _81  and  _83
REMARK   31  A    between atoms: _83  and  _84
REMARK   32  A    between atoms: _86  and  _88
REMARK   33  A    between atoms: _88  and  _89
REMARK   34  A    between atoms: _88  and  _91
REMARK   35  A    between atoms: _93  and  _95
REMARK   36  A    between atoms: _95  and  _96
REMARK   37  A    between atoms: _95  and  _98
REMARK   38  A    between atoms: _98  and  _99
REMARK   39  A    between atoms: _102  and  _104
REMARK   40  A    between atoms: _104  and  _105
REMARK   41  A    between atoms: _104  and  _107
REMARK   42  A    between atoms: _107  and  _108
REMARK   43  A    between atoms: _110  and  _112
REMARK   44  A    between atoms: _112  and  _113
REMARK   45  A    between atoms: _112  and  _115
REMARK   46  A    between atoms: _115  and  _116
REMARK   47  A    between atoms: _122  and  _124
REMARK   48  A    between atoms: _124  and  _125
REMARK   49  A    between atoms: _124  and  _127
REMARK   50  A    between atoms: _127  and  _128
REMARK   51  A    between atoms: _128  and  _129
REMARK   52  A    between atoms: _133  and  _134
REMARK   53  A    between atoms: _139  and  _141
REMARK   54  A    between atoms: _141  and  _142
REMARK   55  A    between atoms: _141  and  _144
REMARK   56  A    between atoms: _144  and  _145
REMARK   57  A    between atoms: _145  and  _146
REMARK   58  A    between atoms: _148  and  _150
REMARK   59  A    between atoms: _150  and  _151
REMARK   60  A    between atoms: _150  and  _153
REMARK   61  A    between atoms: _153  and  _154
REMARK   62  A    between atoms: _164  and  _166
REMARK   63  A    between atoms: _166  and  _167
REMARK   64  A    between atoms: _166  and  _169
REMARK   65  A    between atoms: _169  and  _170
REMARK   66  A    between atoms: _170  and  _171
REMARK   67  A    between atoms: _174  and  _176
REMARK   68  A    between atoms: _176  and  _177
REMARK   69  A    between atoms: _176  and  _179
REMARK   70  A    between atoms: _179  and  _180
REMARK   71  A    between atoms: _183  and  _185
REMARK   72  A    between atoms: _185  and  _186
REMARK   73  A    between atoms: _185  and  _188
REMARK   74  A    between atoms: _188  and  _189
REMARK   75  A    between atoms: _194  and  _196
REMARK   76  A    between atoms: _196  and  _197
REMARK   77  A    between atoms: _196  and  _199
REMARK   78  A    between atoms: _199  and  _200
REMARK   79  A    between atoms: _200  and  _201
REMARK   80  A    between atoms: _201  and  _202
REMARK   81  A    between atoms: _211  and  _213
REMARK   82  A    between atoms: _213  and  _214
REMARK   83  A    between atoms: _213  and  _216
REMARK   84  A    between atoms: _216  and  _217
REMARK   85  A    between atoms: _220  and  _222
REMARK   86  A    between atoms: _222  and  _223
REMARK   87  A    between atoms: _222  and  _225
REMARK   88  A    between atoms: _228  and  _230
REMARK   89  A    between atoms: _230  and  _231
REMARK   90  A    between atoms: _230  and  _233
REMARK   91  A    between atoms: _233  and  _234
REMARK   92  A    between atoms: _241  and  _242
REMARK   93  A    between atoms: _241  and  _244
REMARK   94  A    between atoms: _247  and  _249
REMARK   95  A    between atoms: _249  and  _250
REMARK   96  A    between atoms: _249  and  _252
REMARK   97  A    between atoms: _252  and  _253
REMARK   98  A    between atoms: _253  and  _254
REMARK   99  A    between atoms: _254  and  _255
REMARK  100  A    between atoms: _264  and  _266
REMARK  101  A    between atoms: _266  and  _267
REMARK  102  A    between atoms: _270  and  _272
REMARK  103  A    between atoms: _272  and  _273
REMARK  104  A    between atoms: _272  and  _275
REMARK  105  A    between atoms: _275  and  _276
REMARK  106  A    between atoms: _276  and  _277
REMARK  107  A    between atoms: _277  and  _278
REMARK  108  A    between atoms: _278  and  _279
REMARK  109  A    between atoms: _283  and  _285
REMARK  110  A    between atoms: _285  and  _286
REMARK  111  A    between atoms: _288  and  _290
REMARK  112  A    between atoms: _290  and  _291
REMARK  113  A    between atoms: _290  and  _293
REMARK  114  A    between atoms: _293  and  _294
REMARK  115  A    between atoms: _294  and  _295
REMARK  116  A    between atoms: _295  and  _296
REMARK  117  A    between atoms: _296  and  _297
REMARK  118  A    between atoms: _301  and  _303
REMARK  119  A    between atoms: _303  and  _304
REMARK  120  A    between atoms: _303  and  _306
REMARK  121  A    between atoms: _306  and  _307
REMARK  122  A    between atoms: _317  and  _319
REMARK  123  A    between atoms: _319  and  _320
REMARK  124  A    between atoms: _319  and  _322
REMARK  125  A    between atoms: _322  and  _323
REMARK  126  A    between atoms: _328  and  _330
REMARK  127  A    between atoms: _330  and  _331
REMARK  128  A    between atoms: _330  and  _333
REMARK  129  A    between atoms: _333  and  _334
REMARK  130  A    between atoms: _337  and  _339
REMARK  131  A    between atoms: _339  and  _340
REMARK  132  A    between atoms: _339  and  _342
REMARK  133  A    between atoms: _342  and  _343
REMARK                            x       y       z     vdW  Elec       q    Type
REMARK                         _______ _______ _______ _____ _____    ______ ____
ROOT
ATOM      1  O   HOH     1      29.734  -0.023  52.504  0.00  0.00    +0.000 OA
ENDROOT
TORSDOF 0
REMARK  Name = ../refined-set-2016/2v8w/2v8w_pocket.pdb
REMARK  133 active torsions:
REMARK  status: ('A' for Active; 'I' for Inactive)
REMARK    1  A    between atoms: _1  and  _3
REMARK    2  A    between atoms: _3  and  _4
REMARK    3  A    between atoms: _3  and  _6
REMARK    4  A    between atoms: _6  and  _7
REMARK    5  A    between atoms: _13  and  _15
REMARK    6  A    between atoms: _15  and  _16
REMARK    7  A    between atoms: _15  and  _18
REMARK    8  A    between atoms: _18  and  _19
REMARK    9  A    between atoms: _24  and  _26
REMARK   10  A    between atoms: _26  and  _27
REMARK   11  A    between atoms: _26  and  _29
REMARK   12  A    between atoms: _29  and  _30
REMARK   13  A    between atoms: _33  and  _35
REMARK   14  A    between atoms: _35  and  _36
REMARK   15  A    between atoms: _35  and  _38
REMARK   16  A    between atoms: _38  and  _39
REMARK   17  A    between atoms: _49  and  _51
REMARK   18  A    between atoms: _51  and  _52
REMARK   19  A    between atoms: _51  and  _54
REMARK   20  A    between atoms: _54  and  _55
REMARK   21  A    between atoms: _55  and  _56
REMARK   22  A    between atoms: _61  and  _63
REMARK   23  A    between atoms: _63  and  _64
REMARK   24  A    between atoms: _63  and  _66
REMARK   25  A    between atoms: _66  and  _67
REMARK   26  A    between atoms: _72  and  _74
REMARK   27  A    between atoms: _74  and  _75
REMARK   28  A    between atoms: _74  and  _77
REMARK   29  A    between atoms: _77  and  _78
REMARK   30  A    between atoms: _81  and  _83
REMARK   31  A    between atoms: _83  and  _84
REMARK   32  A    between atoms: _86  and  _88
REMARK   33  A    between atoms: _88  and  _89
REMARK   34  A    between atoms: _88  and  _91
REMARK   35  A    between atoms: _93  and  _95
REMARK   36  A    between atoms: _95  and  _96
REMARK   37  A    between atoms: _95  and  _98
REMARK   38  A    between atoms: _98  and  _99
REMARK   39  A    between atoms: _102  and  _104
REMARK   40  A    between atoms: _104  and  _105
REMARK   41  A    between atoms: _104  and  _107
REMARK   42  A    between atoms: _107  and  _108
REMARK   43  A    between atoms: _110  and  _112
REMARK   44  A    between atoms: _112  and  _113
REMARK   45  A    between atoms: _112  and  _115
REMARK   46  A    between atoms: _115  and  _116
REMARK   47  A    between atoms: _122  and  _124
REMARK   48  A    between atoms: _124  and  _125
REMARK   49  A    between atoms: _124  and  _127
REMARK   50  A    between atoms: _127  and  _128
REMARK   51  A    between atoms: _128  and  _129
REMARK   52  A    between atoms: _133  and  _134
REMARK   53  A    between atoms: _139  and  _141
REMARK   54  A    between atoms: _141  and  _142
REMARK   55  A    between atoms: _141  and  _144
REMARK   56  A    between atoms: _144  and  _145
REMARK   57  A    between atoms: _145  and  _146
REMARK   58  A    between atoms: _148  and  _150
REMARK   59  A    between atoms: _150  and  _151
REMARK   60  A    between atoms: _150  and  _153
REMARK   61  A    between atoms: _153  and  _154
REMARK   62  A    between atoms: _164  and  _166
REMARK   63  A    between atoms: _166  and  _167
REMARK   64  A    between atoms: _166  and  _169
REMARK   65  A    between atoms: _169  and  _170
REMARK   66  A    between atoms: _170  and  _171
REMARK   67  A    between atoms: _174  and  _176
REMARK   68  A    between atoms: _176  and  _177
REMARK   69  A    between atoms: _176  and  _179
REMARK   70  A    between atoms: _179  and  _180
REMARK   71  A    between atoms: _183  and  _185
REMARK   72  A    between atoms: _185  and  _186
REMARK   73  A    between atoms: _185  and  _188
REMARK   74  A    between atoms: _188  and  _189
REMARK   75  A    between atoms: _194  and  _196
REMARK   76  A    between atoms: _196  and  _197
REMARK   77  A    between atoms: _196  and  _199
REMARK   78  A    between atoms: _199  and  _200
REMARK   79  A    between atoms: _200  and  _201
REMARK   80  A    between atoms: _201  and  _202
REMARK   81  A    between atoms: _211  and  _213
REMARK   82  A    between atoms: _213  and  _214
REMARK   83  A    between atoms: _213  and  _216
REMARK   84  A    between atoms: _216  and  _217
REMARK   85  A    between atoms: _220  and  _222
REMARK   86  A    between atoms: _222  and  _223
REMARK   87  A    between atoms: _222  and  _225
REMARK   88  A    between atoms: _228  and  _230
REMARK   89  A    between atoms: _230  and  _231
REMARK   90  A    between atoms: _230  and  _233
REMARK   91  A    between atoms: _233  and  _234
REMARK   92  A    between atoms: _241  and  _242
REMARK   93  A    between atoms: _241  and  _244
REMARK   94  A    between atoms: _247  and  _249
REMARK   95  A    between atoms: _249  and  _250
REMARK   96  A    between atoms: _249  and  _252
REMARK   97  A    between atoms: _252  and  _253
REMARK   98  A    between atoms: _253  and  _254
REMARK   99  A    between atoms: _254  and  _255
REMARK  100  A    between atoms: _264  and  _266
REMARK  101  A    between atoms: _266  and  _267
REMARK  102  A    between atoms: _270  and  _272
REMARK  103  A    between atoms: _272  and  _273
REMARK  104  A    between atoms: _272  and  _275
REMARK  105  A    between atoms: _275  and  _276
REMARK  106  A    between atoms: _276  and  _277
REMARK  107  A    between atoms: _277  and  _278
REMARK  108  A    between atoms: _278  and  _279
REMARK  109  A    between atoms: _283  and  _285
REMARK  110  A    between atoms: _285  and  _286
REMARK  111  A    between atoms: _288  and  _290
REMARK  112  A    between atoms: _290  and  _291
REMARK  113  A    between atoms: _290  and  _293
REMARK  114  A    between atoms: _293  and  _294
REMARK  115  A    between atoms: _294  and  _295
REMARK  116  A    between atoms: _295  and  _296
REMARK  117  A    between atoms: _296  and  _297
REMARK  118  A    between atoms: _301  and  _303
REMARK  119  A    between atoms: _303  and  _304
REMARK  120  A    between atoms: _303  and  _306
REMARK  121  A    between atoms: _306  and  _307
REMARK  122  A    between atoms: _317  and  _319
REMARK  123  A    between atoms: _319  and  _320
REMARK  124  A    between atoms: _319  and  _322
REMARK  125  A    between atoms: _322  and  _323
REMARK  126  A    between atoms: _328  and  _330
REMARK  127  A    between atoms: _330  and  _331
REMARK  128  A    between atoms: _330  and  _333
REMARK  129  A    between atoms: _333  and  _334
REMARK  130  A    between atoms: _337  and  _339
REMARK  131  A    between atoms: _339  and  _340
REMARK  132  A    between atoms: _339  and  _342
REMARK  133  A    between atoms: _342  and  _343
REMARK                            x       y       z     vdW  Elec       q    Type
REMARK                         _______ _______ _______ _____ _____    ______ ____
ROOT
ATOM      1  O   HOH     1      31.483  15.710  52.702  0.00  0.00    +0.000 OA
ENDROOT
TORSDOF 0
REMARK  Name = ../refined-set-2016/2v8w/2v8w_pocket.pdb
REMARK  133 active torsions:
REMARK  status: ('A' for Active; 'I' for Inactive)
REMARK    1  A    between atoms: _1  and  _3
REMARK    2  A    between atoms: _3  and  _4
REMARK    3  A    between atoms: _3  and  _6
REMARK    4  A    between atoms: _6  and  _7
REMARK    5  A    between atoms: _13  and  _15
REMARK    6  A    between atoms: _15  and  _16
REMARK    7  A    between atoms: _15  and  _18
REMARK    8  A    between atoms: _18  and  _19
REMARK    9  A    between atoms: _24  and  _26
REMARK   10  A    between atoms: _26  and  _27
REMARK   11  A    between atoms: _26  and  _29
REMARK   12  A    between atoms: _29  and  _30
REMARK   13  A    between atoms: _33  and  _35
REMARK   14  A    between atoms: _35  and  _36
REMARK   15  A    between atoms: _35  and  _38
REMARK   16  A    between atoms: _38  and  _39
REMARK   17  A    between atoms: _49  and  _51
REMARK   18  A    between atoms: _51  and  _52
REMARK   19  A    between atoms: _51  and  _54
REMARK   20  A    between atoms: _54  and  _55
REMARK   21  A    between atoms: _55  and  _56
REMARK   22  A    between atoms: _61  and  _63
REMARK   23  A    between atoms: _63  and  _64
REMARK   24  A    between atoms: _63  and  _66
REMARK   25  A    between atoms: _66  and  _67
REMARK   26  A    between atoms: _72  and  _74
REMARK   27  A    between atoms: _74  and  _75
REMARK   28  A    between atoms: _74  and  _77
REMARK   29  A    between atoms: _77  and  _78
REMARK   30  A    between atoms: _81  and  _83
REMARK   31  A    between atoms: _83  and  _84
REMARK   32  A    between atoms: _86  and  _88
REMARK   33  A    between atoms: _88  and  _89
REMARK   34  A    between atoms: _88  and  _91
REMARK   35  A    between atoms: _93  and  _95
REMARK   36  A    between atoms: _95  and  _96
REMARK   37  A    between atoms: _95  and  _98
REMARK   38  A    between atoms: _98  and  _99
REMARK   39  A    between atoms: _102  and  _104
REMARK   40  A    between atoms: _104  and  _105
REMARK   41  A    between atoms: _104  and  _107
REMARK   42  A    between atoms: _107  and  _108
REMARK   43  A    between atoms: _110  and  _112
REMARK   44  A    between atoms: _112  and  _113
REMARK   45  A    between atoms: _112  and  _115
REMARK   46  A    between atoms: _115  and  _116
REMARK   47  A    between atoms: _122  and  _124
REMARK   48  A    between atoms: _124  and  _125
REMARK   49  A    between atoms: _124  and  _127
REMARK   50  A    between atoms: _127  and  _128
REMARK   51  A    between atoms: _128  and  _129
REMARK   52  A    between atoms: _133  and  _134
REMARK   53  A    between atoms: _139  and  _141
REMARK   54  A    between atoms: _141  and  _142
REMARK   55  A    between atoms: _141  and  _144
REMARK   56  A    between atoms: _144  and  _145
REMARK   57  A    between atoms: _145  and  _146
REMARK   58  A    between atoms: _148  and  _150
REMARK   59  A    between atoms: _150  and  _151
REMARK   60  A    between atoms: _150  and  _153
REMARK   61  A    between atoms: _153  and  _154
REMARK   62  A    between atoms: _164  and  _166
REMARK   63  A    between atoms: _166  and  _167
REMARK   64  A    between atoms: _166  and  _169
REMARK   65  A    between atoms: _169  and  _170
REMARK   66  A    between atoms: _170  and  _171
REMARK   67  A    between atoms: _174  and  _176
REMARK   68  A    between atoms: _176  and  _177
REMARK   69  A    between atoms: _176  and  _179
REMARK   70  A    between atoms: _179  and  _180
REMARK   71  A    between atoms: _183  and  _185
REMARK   72  A    between atoms: _185  and  _186
REMARK   73  A    between atoms: _185  and  _188
REMARK   74  A    between atoms: _188  and  _189
REMARK   75  A    between atoms: _194  and  _196
REMARK   76  A    between atoms: _196  and  _197
REMARK   77  A    between atoms: _196  and  _199
REMARK   78  A    between atoms: _199  and  _200
REMARK   79  A    between atoms: _200  and  _201
REMARK   80  A    between atoms: _201  and  _202
REMARK   81  A    between atoms: _211  and  _213
REMARK   82  A    between atoms: _213  and  _214
REMARK   83  A    between atoms: _213  and  _216
REMARK   84  A    between atoms: _216  and  _217
REMARK   85  A    between atoms: _220  and  _222
REMARK   86  A    between atoms: _222  and  _223
REMARK   87  A    between atoms: _222  and  _225
REMARK   88  A    between atoms: _228  and  _230
REMARK   89  A    between atoms: _230  and  _231
REMARK   90  A    between atoms: _230  and  _233
REMARK   91  A    between atoms: _233  and  _234
REMARK   92  A    between atoms: _241  and  _242
REMARK   93  A    between atoms: _241  and  _244
REMARK   94  A    between atoms: _247  and  _249
REMARK   95  A    between atoms: _249  and  _250
REMARK   96  A    between atoms: _249  and  _252
REMARK   97  A    between atoms: _252  and  _253
REMARK   98  A    between atoms: _253  and  _254
REMARK   99  A    between atoms: _254  and  _255
REMARK  100  A    between atoms: _264  and  _266
REMARK  101  A    between atoms: _266  and  _267
REMARK  102  A    between atoms: _270  and  _272
REMARK  103  A    between atoms: _272  and  _273
REMARK  104  A    between atoms: _272  and  _275
REMARK  105  A    between atoms: _275  and  _276
REMARK  106  A    between atoms: _276  and  _277
REMARK  107  A    between atoms: _277  and  _278
REMARK  108  A    between atoms: _278  and  _279
REMARK  109  A    between atoms: _283  and  _285
REMARK  110  A    between atoms: _285  and  _286
REMARK  111  A    between atoms: _288  and  _290
REMARK  112  A    between atoms: _290  and  _291
REMARK  113  A    between atoms: _290  and  _293
REMARK  114  A    between atoms: _293  and  _294
REMARK  115  A    between atoms: _294  and  _295
REMARK  116  A    between atoms: _295  and  _296
REMARK  117  A    between atoms: _296  and  _297
REMARK  118  A    between atoms: _301  and  _303
REMARK  119  A    between atoms: _303  and  _304
REMARK  120  A    between atoms: _303  and  _306
REMARK  121  A    between atoms: _306  and  _307
REMARK  122  A    between atoms: _317  and  _319
REMARK  123  A    between atoms: _319  and  _320
REMARK  124  A    between atoms: _319  and  _322
REMARK  125  A    between atoms: _322  and  _323
REMARK  126  A    between atoms: _328  and  _330
REMARK  127  A    between atoms: _330  and  _331
REMARK  128  A    between atoms: _330  and  _333
REMARK  129  A    between atoms: _333  and  _334
REMARK  130  A    between atoms: _337  and  _339
REMARK  131  A    between atoms: _339  and  _340
REMARK  132  A    between atoms: _339  and  _342
REMARK  133  A    between atoms: _342  and  _343
REMARK                            x       y       z     vdW  Elec       q    Type
REMARK                         _______ _______ _______ _____ _____    ______ ____
ROOT
ATOM      1  O   HOH     1      34.331  12.452  48.979  0.00  0.00    +0.000 OA
ENDROOT
TORSDOF 0
REMARK  Name = ../refined-set-2016/2v8w/2v8w_pocket.pdb
REMARK  133 active torsions:
REMARK  status: ('A' for Active; 'I' for Inactive)
REMARK    1  A    between atoms: _1  and  _3
REMARK    2  A    between atoms: _3  and  _4
REMARK    3  A    between atoms: _3  and  _6
REMARK    4  A    between atoms: _6  and  _7
REMARK    5  A    between atoms: _13  and  _15
REMARK    6  A    between atoms: _15  and  _16
REMARK    7  A    between atoms: _15  and  _18
REMARK    8  A    between atoms: _18  and  _19
REMARK    9  A    between atoms: _24  and  _26
REMARK   10  A    between atoms: _26  and  _27
REMARK   11  A    between atoms: _26  and  _29
REMARK   12  A    between atoms: _29  and  _30
REMARK   13  A    between atoms: _33  and  _35
REMARK   14  A    between atoms: _35  and  _36
REMARK   15  A    between atoms: _35  and  _38
REMARK   16  A    between atoms: _38  and  _39
REMARK   17  A    between atoms: _49  and  _51
REMARK   18  A    between atoms: _51  and  _52
REMARK   19  A    between atoms: _51  and  _54
REMARK   20  A    between atoms: _54  and  _55
REMARK   21  A    between atoms: _55  and  _56
REMARK   22  A    between atoms: _61  and  _63
REMARK   23  A    between atoms: _63  and  _64
REMARK   24  A    between atoms: _63  and  _66
REMARK   25  A    between atoms: _66  and  _67
REMARK   26  A    between atoms: _72  and  _74
REMARK   27  A    between atoms: _74  and  _75
REMARK   28  A    between atoms: _74  and  _77
REMARK   29  A    between atoms: _77  and  _78
REMARK   30  A    between atoms: _81  and  _83
REMARK   31  A    between atoms: _83  and  _84
REMARK   32  A    between atoms: _86  and  _88
REMARK   33  A    between atoms: _88  and  _89
REMARK   34  A    between atoms: _88  and  _91
REMARK   35  A    between atoms: _93  and  _95
REMARK   36  A    between atoms: _95  and  _96
REMARK   37  A    between atoms: _95  and  _98
REMARK   38  A    between atoms: _98  and  _99
REMARK   39  A    between atoms: _102  and  _104
REMARK   40  A    between atoms: _104  and  _105
REMARK   41  A    between atoms: _104  and  _107
REMARK   42  A    between atoms: _107  and  _108
REMARK   43  A    between atoms: _110  and  _112
REMARK   44  A    between atoms: _112  and  _113
REMARK   45  A    between atoms: _112  and  _115
REMARK   46  A    between atoms: _115  and  _116
REMARK   47  A    between atoms: _122  and  _124
REMARK   48  A    between atoms: _124  and  _125
REMARK   49  A    between atoms: _124  and  _127
REMARK   50  A    between atoms: _127  and  _128
REMARK   51  A    between atoms: _128  and  _129
REMARK   52  A    between atoms: _133  and  _134
REMARK   53  A    between atoms: _139  and  _141
REMARK   54  A    between atoms: _141  and  _142
REMARK   55  A    between atoms: _141  and  _144
REMARK   56  A    between atoms: _144  and  _145
REMARK   57  A    between atoms: _145  and  _146
REMARK   58  A    between atoms: _148  and  _150
REMARK   59  A    between atoms: _150  and  _151
REMARK   60  A    between atoms: _150  and  _153
REMARK   61  A    between atoms: _153  and  _154
REMARK   62  A    between atoms: _164  and  _166
REMARK   63  A    between atoms: _166  and  _167
REMARK   64  A    between atoms: _166  and  _169
REMARK   65  A    between atoms: _169  and  _170
REMARK   66  A    between atoms: _170  and  _171
REMARK   67  A    between atoms: _174  and  _176
REMARK   68  A    between atoms: _176  and  _177
REMARK   69  A    between atoms: _176  and  _179
REMARK   70  A    between atoms: _179  and  _180
REMARK   71  A    between atoms: _183  and  _185
REMARK   72  A    between atoms: _185  and  _186
REMARK   73  A    between atoms: _185  and  _188
REMARK   74  A    between atoms: _188  and  _189
REMARK   75  A    between atoms: _194  and  _196
REMARK   76  A    between atoms: _196  and  _197
REMARK   77  A    between atoms: _196  and  _199
REMARK   78  A    between atoms: _199  and  _200
REMARK   79  A    between atoms: _200  and  _201
REMARK   80  A    between atoms: _201  and  _202
REMARK   81  A    between atoms: _211  and  _213
REMARK   82  A    between atoms: _213  and  _214
REMARK   83  A    between atoms: _213  and  _216
REMARK   84  A    between atoms: _216  and  _217
REMARK   85  A    between atoms: _220  and  _222
REMARK   86  A    between atoms: _222  and  _223
REMARK   87  A    between atoms: _222  and  _225
REMARK   88  A    between atoms: _228  and  _230
REMARK   89  A    between atoms: _230  and  _231
REMARK   90  A    between atoms: _230  and  _233
REMARK   91  A    between atoms: _233  and  _234
REMARK   92  A    between atoms: _241  and  _242
REMARK   93  A    between atoms: _241  and  _244
REMARK   94  A    between atoms: _247  and  _249
REMARK   95  A    between atoms: _249  and  _250
REMARK   96  A    between atoms: _249  and  _252
REMARK   97  A    between atoms: _252  and  _253
REMARK   98  A    between atoms: _253  and  _254
REMARK   99  A    between atoms: _254  and  _255
REMARK  100  A    between atoms: _264  and  _266
REMARK  101  A    between atoms: _266  and  _267
REMARK  102  A    between atoms: _270  and  _272
REMARK  103  A    between atoms: _272  and  _273
REMARK  104  A    between atoms: _272  and  _275
REMARK  105  A    between atoms: _275  and  _276
REMARK  106  A    between atoms: _276  and  _277
REMARK  107  A    between atoms: _277  and  _278
REMARK  108  A    between atoms: _278  and  _279
REMARK  109  A    between atoms: _283  and  _285
REMARK  110  A    between atoms: _285  and  _286
REMARK  111  A    between atoms: _288  and  _290
REMARK  112  A    between atoms: _290  and  _291
REMARK  113  A    between atoms: _290  and  _293
REMARK  114  A    between atoms: _293  and  _294
REMARK  115  A    between atoms: _294  and  _295
REMARK  116  A    between atoms: _295  and  _296
REMARK  117  A    between atoms: _296  and  _297
REMARK  118  A    between atoms: _301  and  _303
REMARK  119  A    between atoms: _303  and  _304
REMARK  120  A    between atoms: _303  and  _306
REMARK  121  A    between atoms: _306  and  _307
REMARK  122  A    between atoms: _317  and  _319
REMARK  123  A    between atoms: _319  and  _320
REMARK  124  A    between atoms: _319  and  _322
REMARK  125  A    between atoms: _322  and  _323
REMARK  126  A    between atoms: _328  and  _330
REMARK  127  A    between atoms: _330  and  _331
REMARK  128  A    between atoms: _330  and  _333
REMARK  129  A    between atoms: _333  and  _334
REMARK  130  A    between atoms: _337  and  _339
REMARK  131  A    between atoms: _339  and  _340
REMARK  132  A    between atoms: _339  and  _342
REMARK  133  A    between atoms: _342  and  _343
REMARK                            x       y       z     vdW  Elec       q    Type
REMARK                         _______ _______ _______ _____ _____    ______ ____
ROOT
ATOM      1  O   HOH     1      31.991  17.857  54.316  0.00  0.00    +0.000 OA
ENDROOT
TORSDOF 0
REMARK  Name = ../refined-set-2016/2v8w/2v8w_pocket.pdb
REMARK  133 active torsions:
REMARK  status: ('A' for Active; 'I' for Inactive)
REMARK    1  A    between atoms: _1  and  _3
REMARK    2  A    between atoms: _3  and  _4
REMARK    3  A    between atoms: _3  and  _6
REMARK    4  A    between atoms: _6  and  _7
REMARK    5  A    between atoms: _13  and  _15
REMARK    6  A    between atoms: _15  and  _16
REMARK    7  A    between atoms: _15  and  _18
REMARK    8  A    between atoms: _18  and  _19
REMARK    9  A    between atoms: _24  and  _26
REMARK   10  A    between atoms: _26  and  _27
REMARK   11  A    between atoms: _26  and  _29
REMARK   12  A    between atoms: _29  and  _30
REMARK   13  A    between atoms: _33  and  _35
REMARK   14  A    between atoms: _35  and  _36
REMARK   15  A    between atoms: _35  and  _38
REMARK   16  A    between atoms: _38  and  _39
REMARK   17  A    between atoms: _49  and  _51
REMARK   18  A    between atoms: _51  and  _52
REMARK   19  A    between atoms: _51  and  _54
REMARK   20  A    between atoms: _54  and  _55
REMARK   21  A    between atoms: _55  and  _56
REMARK   22  A    between atoms: _61  and  _63
REMARK   23  A    between atoms: _63  and  _64
REMARK   24  A    between atoms: _63  and  _66
REMARK   25  A    between atoms: _66  and  _67
REMARK   26  A    between atoms: _72  and  _74
REMARK   27  A    between atoms: _74  and  _75
REMARK   28  A    between atoms: _74  and  _77
REMARK   29  A    between atoms: _77  and  _78
REMARK   30  A    between atoms: _81  and  _83
REMARK   31  A    between atoms: _83  and  _84
REMARK   32  A    between atoms: _86  and  _88
REMARK   33  A    between atoms: _88  and  _89
REMARK   34  A    between atoms: _88  and  _91
REMARK   35  A    between atoms: _93  and  _95
REMARK   36  A    between atoms: _95  and  _96
REMARK   37  A    between atoms: _95  and  _98
REMARK   38  A    between atoms: _98  and  _99
REMARK   39  A    between atoms: _102  and  _104
REMARK   40  A    between atoms: _104  and  _105
REMARK   41  A    between atoms: _104  and  _107
REMARK   42  A    between atoms: _107  and  _108
REMARK   43  A    between atoms: _110  and  _112
REMARK   44  A    between atoms: _112  and  _113
REMARK   45  A    between atoms: _112  and  _115
REMARK   46  A    between atoms: _115  and  _116
REMARK   47  A    between atoms: _122  and  _124
REMARK   48  A    between atoms: _124  and  _125
REMARK   49  A    between atoms: _124  and  _127
REMARK   50  A    between atoms: _127  and  _128
REMARK   51  A    between atoms: _128  and  _129
REMARK   52  A    between atoms: _133  and  _134
REMARK   53  A    between atoms: _139  and  _141
REMARK   54  A    between atoms: _141  and  _142
REMARK   55  A    between atoms: _141  and  _144
REMARK   56  A    between atoms: _144  and  _145
REMARK   57  A    between atoms: _145  and  _146
REMARK   58  A    between atoms: _148  and  _150
REMARK   59  A    between atoms: _150  and  _151
REMARK   60  A    between atoms: _150  and  _153
REMARK   61  A    between atoms: _153  and  _154
REMARK   62  A    between atoms: _164  and  _166
REMARK   63  A    between atoms: _166  and  _167
REMARK   64  A    between atoms: _166  and  _169
REMARK   65  A    between atoms: _169  and  _170
REMARK   66  A    between atoms: _170  and  _171
REMARK   67  A    between atoms: _174  and  _176
REMARK   68  A    between atoms: _176  and  _177
REMARK   69  A    between atoms: _176  and  _179
REMARK   70  A    between atoms: _179  and  _180
REMARK   71  A    between atoms: _183  and  _185
REMARK   72  A    between atoms: _185  and  _186
REMARK   73  A    between atoms: _185  and  _188
REMARK   74  A    between atoms: _188  and  _189
REMARK   75  A    between atoms: _194  and  _196
REMARK   76  A    between atoms: _196  and  _197
REMARK   77  A    between atoms: _196  and  _199
REMARK   78  A    between atoms: _199  and  _200
REMARK   79  A    between atoms: _200  and  _201
REMARK   80  A    between atoms: _201  and  _202
REMARK   81  A    between atoms: _211  and  _213
REMARK   82  A    between atoms: _213  and  _214
REMARK   83  A    between atoms: _213  and  _216
REMARK   84  A    between atoms: _216  and  _217
REMARK   85  A    between atoms: _220  and  _222
REMARK   86  A    between atoms: _222  and  _223
REMARK   87  A    between atoms: _222  and  _225
REMARK   88  A    between atoms: _228  and  _230
REMARK   89  A    between atoms: _230  and  _231
REMARK   90  A    between atoms: _230  and  _233
REMARK   91  A    between atoms: _233  and  _234
REMARK   92  A    between atoms: _241  and  _242
REMARK   93  A    between atoms: _241  and  _244
REMARK   94  A    between atoms: _247  and  _249
REMARK   95  A    between atoms: _249  and  _250
REMARK   96  A    between atoms: _249  and  _252
REMARK   97  A    between atoms: _252  and  _253
REMARK   98  A    between atoms: _253  and  _254
REMARK   99  A    between atoms: _254  and  _255
REMARK  100  A    between atoms: _264  and  _266
REMARK  101  A    between atoms: _266  and  _267
REMARK  102  A    between atoms: _270  and  _272
REMARK  103  A    between atoms: _272  and  _273
REMARK  104  A    between atoms: _272  and  _275
REMARK  105  A    between atoms: _275  and  _276
REMARK  106  A    between atoms: _276  and  _277
REMARK  107  A    between atoms: _277  and  _278
REMARK  108  A    between atoms: _278  and  _279
REMARK  109  A    between atoms: _283  and  _285
REMARK  110  A    between atoms: _285  and  _286
REMARK  111  A    between atoms: _288  and  _290
REMARK  112  A    between atoms: _290  and  _291
REMARK  113  A    between atoms: _290  and  _293
REMARK  114  A    between atoms: _293  and  _294
REMARK  115  A    between atoms: _294  and  _295
REMARK  116  A    between atoms: _295  and  _296
REMARK  117  A    between atoms: _296  and  _297
REMARK  118  A    between atoms: _301  and  _303
REMARK  119  A    between atoms: _303  and  _304
REMARK  120  A    between atoms: _303  and  _306
REMARK  121  A    between atoms: _306  and  _307
REMARK  122  A    between atoms: _317  and  _319
REMARK  123  A    between atoms: _319  and  _320
REMARK  124  A    between atoms: _319  and  _322
REMARK  125  A    between atoms: _322  and  _323
REMARK  126  A    between atoms: _328  and  _330
REMARK  127  A    between atoms: _330  and  _331
REMARK  128  A    between atoms: _330  and  _333
REMARK  129  A    between atoms: _333  and  _334
REMARK  130  A    between atoms: _337  and  _339
REMARK  131  A    between atoms: _339  and  _340
REMARK  132  A    between atoms: _339  and  _342
REMARK  133  A    between atoms: _342  and  _343
REMARK                            x       y       z     vdW  Elec       q    Type
REMARK                         _______ _______ _______ _____ _____    ______ ____
ROOT
ATOM      1  O   HOH     1      30.490  12.931  55.958  0.00  0.00    +0.000 OA
ENDROOT
TORSDOF 0
REMARK  Name = ../refined-set-2016/2v8w/2v8w_pocket.pdb
REMARK  133 active torsions:
REMARK  status: ('A' for Active; 'I' for Inactive)
REMARK    1  A    between atoms: _1  and  _3
REMARK    2  A    between atoms: _3  and  _4
REMARK    3  A    between atoms: _3  and  _6
REMARK    4  A    between atoms: _6  and  _7
REMARK    5  A    between atoms: _13  and  _15
REMARK    6  A    between atoms: _15  and  _16
REMARK    7  A    between atoms: _15  and  _18
REMARK    8  A    between atoms: _18  and  _19
REMARK    9  A    between atoms: _24  and  _26
REMARK   10  A    between atoms: _26  and  _27
REMARK   11  A    between atoms: _26  and  _29
REMARK   12  A    between atoms: _29  and  _30
REMARK   13  A    between atoms: _33  and  _35
REMARK   14  A    between atoms: _35  and  _36
REMARK   15  A    between atoms: _35  and  _38
REMARK   16  A    between atoms: _38  and  _39
REMARK   17  A    between atoms: _49  and  _51
REMARK   18  A    between atoms: _51  and  _52
REMARK   19  A    between atoms: _51  and  _54
REMARK   20  A    between atoms: _54  and  _55
REMARK   21  A    between atoms: _55  and  _56
REMARK   22  A    between atoms: _61  and  _63
REMARK   23  A    between atoms: _63  and  _64
REMARK   24  A    between atoms: _63  and  _66
REMARK   25  A    between atoms: _66  and  _67
REMARK   26  A    between atoms: _72  and  _74
REMARK   27  A    between atoms: _74  and  _75
REMARK   28  A    between atoms: _74  and  _77
REMARK   29  A    between atoms: _77  and  _78
REMARK   30  A    between atoms: _81  and  _83
REMARK   31  A    between atoms: _83  and  _84
REMARK   32  A    between atoms: _86  and  _88
REMARK   33  A    between atoms: _88  and  _89
REMARK   34  A    between atoms: _88  and  _91
REMARK   35  A    between atoms: _93  and  _95
REMARK   36  A    between atoms: _95  and  _96
REMARK   37  A    between atoms: _95  and  _98
REMARK   38  A    between atoms: _98  and  _99
REMARK   39  A    between atoms: _102  and  _104
REMARK   40  A    between atoms: _104  and  _105
REMARK   41  A    between atoms: _104  and  _107
REMARK   42  A    between atoms: _107  and  _108
REMARK   43  A    between atoms: _110  and  _112
REMARK   44  A    between atoms: _112  and  _113
REMARK   45  A    between atoms: _112  and  _115
REMARK   46  A    between atoms: _115  and  _116
REMARK   47  A    between atoms: _122  and  _124
REMARK   48  A    between atoms: _124  and  _125
REMARK   49  A    between atoms: _124  and  _127
REMARK   50  A    between atoms: _127  and  _128
REMARK   51  A    between atoms: _128  and  _129
REMARK   52  A    between atoms: _133  and  _134
REMARK   53  A    between atoms: _139  and  _141
REMARK   54  A    between atoms: _141  and  _142
REMARK   55  A    between atoms: _141  and  _144
REMARK   56  A    between atoms: _144  and  _145
REMARK   57  A    between atoms: _145  and  _146
REMARK   58  A    between atoms: _148  and  _150
REMARK   59  A    between atoms: _150  and  _151
REMARK   60  A    between atoms: _150  and  _153
REMARK   61  A    between atoms: _153  and  _154
REMARK   62  A    between atoms: _164  and  _166
REMARK   63  A    between atoms: _166  and  _167
REMARK   64  A    between atoms: _166  and  _169
REMARK   65  A    between atoms: _169  and  _170
REMARK   66  A    between atoms: _170  and  _171
REMARK   67  A    between atoms: _174  and  _176
REMARK   68  A    between atoms: _176  and  _177
REMARK   69  A    between atoms: _176  and  _179
REMARK   70  A    between atoms: _179  and  _180
REMARK   71  A    between atoms: _183  and  _185
REMARK   72  A    between atoms: _185  and  _186
REMARK   73  A    between atoms: _185  and  _188
REMARK   74  A    between atoms: _188  and  _189
REMARK   75  A    between atoms: _194  and  _196
REMARK   76  A    between atoms: _196  and  _197
REMARK   77  A    between atoms: _196  and  _199
REMARK   78  A    between atoms: _199  and  _200
REMARK   79  A    between atoms: _200  and  _201
REMARK   80  A    between atoms: _201  and  _202
REMARK   81  A    between atoms: _211  and  _213
REMARK   82  A    between atoms: _213  and  _214
REMARK   83  A    between atoms: _213  and  _216
REMARK   84  A    between atoms: _216  and  _217
REMARK   85  A    between atoms: _220  and  _222
REMARK   86  A    between atoms: _222  and  _223
REMARK   87  A    between atoms: _222  and  _225
REMARK   88  A    between atoms: _228  and  _230
REMARK   89  A    between atoms: _230  and  _231
REMARK   90  A    between atoms: _230  and  _233
REMARK   91  A    between atoms: _233  and  _234
REMARK   92  A    between atoms: _241  and  _242
REMARK   93  A    between atoms: _241  and  _244
REMARK   94  A    between atoms: _247  and  _249
REMARK   95  A    between atoms: _249  and  _250
REMARK   96  A    between atoms: _249  and  _252
REMARK   97  A    between atoms: _252  and  _253
REMARK   98  A    between atoms: _253  and  _254
REMARK   99  A    between atoms: _254  and  _255
REMARK  100  A    between atoms: _264  and  _266
REMARK  101  A    between atoms: _266  and  _267
REMARK  102  A    between atoms: _270  and  _272
REMARK  103  A    between atoms: _272  and  _273
REMARK  104  A    between atoms: _272  and  _275
REMARK  105  A    between atoms: _275  and  _276
REMARK  106  A    between atoms: _276  and  _277
REMARK  107  A    between atoms: _277  and  _278
REMARK  108  A    between atoms: _278  and  _279
REMARK  109  A    between atoms: _283  and  _285
REMARK  110  A    between atoms: _285  and  _286
REMARK  111  A    between atoms: _288  and  _290
REMARK  112  A    between atoms: _290  and  _291
REMARK  113  A    between atoms: _290  and  _293
REMARK  114  A    between atoms: _293  and  _294
REMARK  115  A    between atoms: _294  and  _295
REMARK  116  A    between atoms: _295  and  _296
REMARK  117  A    between atoms: _296  and  _297
REMARK  118  A    between atoms: _301  and  _303
REMARK  119  A    between atoms: _303  and  _304
REMARK  120  A    between atoms: _303  and  _306
REMARK  121  A    between atoms: _306  and  _307
REMARK  122  A    between atoms: _317  and  _319
REMARK  123  A    between atoms: _319  and  _320
REMARK  124  A    between atoms: _319  and  _322
REMARK  125  A    between atoms: _322  and  _323
REMARK  126  A    between atoms: _328  and  _330
REMARK  127  A    between atoms: _330  and  _331
REMARK  128  A    between atoms: _330  and  _333
REMARK  129  A    between atoms: _333  and  _334
REMARK  130  A    between atoms: _337  and  _339
REMARK  131  A    between atoms: _339  and  _340
REMARK  132  A    between atoms: _339  and  _342
REMARK  133  A    between atoms: _342  and  _343
REMARK                            x       y       z     vdW  Elec       q    Type
REMARK                         _______ _______ _______ _____ _____    ______ ____
ROOT
ATOM      1  O   HOH     1      40.310  16.844  64.022  0.00  0.00    +0.000 OA
ENDROOT
TORSDOF 0
REMARK  Name = ../refined-set-2016/2v8w/2v8w_pocket.pdb
REMARK  133 active torsions:
REMARK  status: ('A' for Active; 'I' for Inactive)
REMARK    1  A    between atoms: _1  and  _3
REMARK    2  A    between atoms: _3  and  _4
REMARK    3  A    between atoms: _3  and  _6
REMARK    4  A    between atoms: _6  and  _7
REMARK    5  A    between atoms: _13  and  _15
REMARK    6  A    between atoms: _15  and  _16
REMARK    7  A    between atoms: _15  and  _18
REMARK    8  A    between atoms: _18  and  _19
REMARK    9  A    between atoms: _24  and  _26
REMARK   10  A    between atoms: _26  and  _27
REMARK   11  A    between atoms: _26  and  _29
REMARK   12  A    between atoms: _29  and  _30
REMARK   13  A    between atoms: _33  and  _35
REMARK   14  A    between atoms: _35  and  _36
REMARK   15  A    between atoms: _35  and  _38
REMARK   16  A    between atoms: _38  and  _39
REMARK   17  A    between atoms: _49  and  _51
REMARK   18  A    between atoms: _51  and  _52
REMARK   19  A    between atoms: _51  and  _54
REMARK   20  A    between atoms: _54  and  _55
REMARK   21  A    between atoms: _55  and  _56
REMARK   22  A    between atoms: _61  and  _63
REMARK   23  A    between atoms: _63  and  _64
REMARK   24  A    between atoms: _63  and  _66
REMARK   25  A    between atoms: _66  and  _67
REMARK   26  A    between atoms: _72  and  _74
REMARK   27  A    between atoms: _74  and  _75
REMARK   28  A    between atoms: _74  and  _77
REMARK   29  A    between atoms: _77  and  _78
REMARK   30  A    between atoms: _81  and  _83
REMARK   31  A    between atoms: _83  and  _84
REMARK   32  A    between atoms: _86  and  _88
REMARK   33  A    between atoms: _88  and  _89
REMARK   34  A    between atoms: _88  and  _91
REMARK   35  A    between atoms: _93  and  _95
REMARK   36  A    between atoms: _95  and  _96
REMARK   37  A    between atoms: _95  and  _98
REMARK   38  A    between atoms: _98  and  _99
REMARK   39  A    between atoms: _102  and  _104
REMARK   40  A    between atoms: _104  and  _105
REMARK   41  A    between atoms: _104  and  _107
REMARK   42  A    between atoms: _107  and  _108
REMARK   43  A    between atoms: _110  and  _112
REMARK   44  A    between atoms: _112  and  _113
REMARK   45  A    between atoms: _112  and  _115
REMARK   46  A    between atoms: _115  and  _116
REMARK   47  A    between atoms: _122  and  _124
REMARK   48  A    between atoms: _124  and  _125
REMARK   49  A    between atoms: _124  and  _127
REMARK   50  A    between atoms: _127  and  _128
REMARK   51  A    between atoms: _128  and  _129
REMARK   52  A    between atoms: _133  and  _134
REMARK   53  A    between atoms: _139  and  _141
REMARK   54  A    between atoms: _141  and  _142
REMARK   55  A    between atoms: _141  and  _144
REMARK   56  A    between atoms: _144  and  _145
REMARK   57  A    between atoms: _145  and  _146
REMARK   58  A    between atoms: _148  and  _150
REMARK   59  A    between atoms: _150  and  _151
REMARK   60  A    between atoms: _150  and  _153
REMARK   61  A    between atoms: _153  and  _154
REMARK   62  A    between atoms: _164  and  _166
REMARK   63  A    between atoms: _166  and  _167
REMARK   64  A    between atoms: _166  and  _169
REMARK   65  A    between atoms: _169  and  _170
REMARK   66  A    between atoms: _170  and  _171
REMARK   67  A    between atoms: _174  and  _176
REMARK   68  A    between atoms: _176  and  _177
REMARK   69  A    between atoms: _176  and  _179
REMARK   70  A    between atoms: _179  and  _180
REMARK   71  A    between atoms: _183  and  _185
REMARK   72  A    between atoms: _185  and  _186
REMARK   73  A    between atoms: _185  and  _188
REMARK   74  A    between atoms: _188  and  _189
REMARK   75  A    between atoms: _194  and  _196
REMARK   76  A    between atoms: _196  and  _197
REMARK   77  A    between atoms: _196  and  _199
REMARK   78  A    between atoms: _199  and  _200
REMARK   79  A    between atoms: _200  and  _201
REMARK   80  A    between atoms: _201  and  _202
REMARK   81  A    between atoms: _211  and  _213
REMARK   82  A    between atoms: _213  and  _214
REMARK   83  A    between atoms: _213  and  _216
REMARK   84  A    between atoms: _216  and  _217
REMARK   85  A    between atoms: _220  and  _222
REMARK   86  A    between atoms: _222  and  _223
REMARK   87  A    between atoms: _222  and  _225
REMARK   88  A    between atoms: _228  and  _230
REMARK   89  A    between atoms: _230  and  _231
REMARK   90  A    between atoms: _230  and  _233
REMARK   91  A    between atoms: _233  and  _234
REMARK   92  A    between atoms: _241  and  _242
REMARK   93  A    between atoms: _241  and  _244
REMARK   94  A    between atoms: _247  and  _249
REMARK   95  A    between atoms: _249  and  _250
REMARK   96  A    between atoms: _249  and  _252
REMARK   97  A    between atoms: _252  and  _253
REMARK   98  A    between atoms: _253  and  _254
REMARK   99  A    between atoms: _254  and  _255
REMARK  100  A    between atoms: _264  and  _266
REMARK  101  A    between atoms: _266  and  _267
REMARK  102  A    between atoms: _270  and  _272
REMARK  103  A    between atoms: _272  and  _273
REMARK  104  A    between atoms: _272  and  _275
REMARK  105  A    between atoms: _275  and  _276
REMARK  106  A    between atoms: _276  and  _277
REMARK  107  A    between atoms: _277  and  _278
REMARK  108  A    between atoms: _278  and  _279
REMARK  109  A    between atoms: _283  and  _285
REMARK  110  A    between atoms: _285  and  _286
REMARK  111  A    between atoms: _288  and  _290
REMARK  112  A    between atoms: _290  and  _291
REMARK  113  A    between atoms: _290  and  _293
REMARK  114  A    between atoms: _293  and  _294
REMARK  115  A    between atoms: _294  and  _295
REMARK  116  A    between atoms: _295  and  _296
REMARK  117  A    between atoms: _296  and  _297
REMARK  118  A    between atoms: _301  and  _303
REMARK  119  A    between atoms: _303  and  _304
REMARK  120  A    between atoms: _303  and  _306
REMARK  121  A    between atoms: _306  and  _307
REMARK  122  A    between atoms: _317  and  _319
REMARK  123  A    between atoms: _319  and  _320
REMARK  124  A    between atoms: _319  and  _322
REMARK  125  A    between atoms: _322  and  _323
REMARK  126  A    between atoms: _328  and  _330
REMARK  127  A    between atoms: _330  and  _331
REMARK  128  A    between atoms: _330  and  _333
REMARK  129  A    between atoms: _333  and  _334
REMARK  130  A    between atoms: _337  and  _339
REMARK  131  A    between atoms: _339  and  _340
REMARK  132  A    between atoms: _339  and  _342
REMARK  133  A    between atoms: _342  and  _343
REMARK                            x       y       z     vdW  Elec       q    Type
REMARK                         _______ _______ _______ _____ _____    ______ ____
ROOT
ATOM      1  O   HOH     1      38.541  16.273  65.130  0.00  0.00    +0.000 OA
ENDROOT
TORSDOF 0
REMARK  Name = ../refined-set-2016/2v8w/2v8w_pocket.pdb
REMARK  133 active torsions:
REMARK  status: ('A' for Active; 'I' for Inactive)
REMARK    1  A    between atoms: _1  and  _3
REMARK    2  A    between atoms: _3  and  _4
REMARK    3  A    between atoms: _3  and  _6
REMARK    4  A    between atoms: _6  and  _7
REMARK    5  A    between atoms: _13  and  _15
REMARK    6  A    between atoms: _15  and  _16
REMARK    7  A    between atoms: _15  and  _18
REMARK    8  A    between atoms: _18  and  _19
REMARK    9  A    between atoms: _24  and  _26
REMARK   10  A    between atoms: _26  and  _27
REMARK   11  A    between atoms: _26  and  _29
REMARK   12  A    between atoms: _29  and  _30
REMARK   13  A    between atoms: _33  and  _35
REMARK   14  A    between atoms: _35  and  _36
REMARK   15  A    between atoms: _35  and  _38
REMARK   16  A    between atoms: _38  and  _39
REMARK   17  A    between atoms: _49  and  _51
REMARK   18  A    between atoms: _51  and  _52
REMARK   19  A    between atoms: _51  and  _54
REMARK   20  A    between atoms: _54  and  _55
REMARK   21  A    between atoms: _55  and  _56
REMARK   22  A    between atoms: _61  and  _63
REMARK   23  A    between atoms: _63  and  _64
REMARK   24  A    between atoms: _63  and  _66
REMARK   25  A    between atoms: _66  and  _67
REMARK   26  A    between atoms: _72  and  _74
REMARK   27  A    between atoms: _74  and  _75
REMARK   28  A    between atoms: _74  and  _77
REMARK   29  A    between atoms: _77  and  _78
REMARK   30  A    between atoms: _81  and  _83
REMARK   31  A    between atoms: _83  and  _84
REMARK   32  A    between atoms: _86  and  _88
REMARK   33  A    between atoms: _88  and  _89
REMARK   34  A    between atoms: _88  and  _91
REMARK   35  A    between atoms: _93  and  _95
REMARK   36  A    between atoms: _95  and  _96
REMARK   37  A    between atoms: _95  and  _98
REMARK   38  A    between atoms: _98  and  _99
REMARK   39  A    between atoms: _102  and  _104
REMARK   40  A    between atoms: _104  and  _105
REMARK   41  A    between atoms: _104  and  _107
REMARK   42  A    between atoms: _107  and  _108
REMARK   43  A    between atoms: _110  and  _112
REMARK   44  A    between atoms: _112  and  _113
REMARK   45  A    between atoms: _112  and  _115
REMARK   46  A    between atoms: _115  and  _116
REMARK   47  A    between atoms: _122  and  _124
REMARK   48  A    between atoms: _124  and  _125
REMARK   49  A    between atoms: _124  and  _127
REMARK   50  A    between atoms: _127  and  _128
REMARK   51  A    between atoms: _128  and  _129
REMARK   52  A    between atoms: _133  and  _134
REMARK   53  A    between atoms: _139  and  _141
REMARK   54  A    between atoms: _141  and  _142
REMARK   55  A    between atoms: _141  and  _144
REMARK   56  A    between atoms: _144  and  _145
REMARK   57  A    between atoms: _145  and  _146
REMARK   58  A    between atoms: _148  and  _150
REMARK   59  A    between atoms: _150  and  _151
REMARK   60  A    between atoms: _150  and  _153
REMARK   61  A    between atoms: _153  and  _154
REMARK   62  A    between atoms: _164  and  _166
REMARK   63  A    between atoms: _166  and  _167
REMARK   64  A    between atoms: _166  and  _169
REMARK   65  A    between atoms: _169  and  _170
REMARK   66  A    between atoms: _170  and  _171
REMARK   67  A    between atoms: _174  and  _176
REMARK   68  A    between atoms: _176  and  _177
REMARK   69  A    between atoms: _176  and  _179
REMARK   70  A    between atoms: _179  and  _180
REMARK   71  A    between atoms: _183  and  _185
REMARK   72  A    between atoms: _185  and  _186
REMARK   73  A    between atoms: _185  and  _188
REMARK   74  A    between atoms: _188  and  _189
REMARK   75  A    between atoms: _194  and  _196
REMARK   76  A    between atoms: _196  and  _197
REMARK   77  A    between atoms: _196  and  _199
REMARK   78  A    between atoms: _199  and  _200
REMARK   79  A    between atoms: _200  and  _201
REMARK   80  A    between atoms: _201  and  _202
REMARK   81  A    between atoms: _211  and  _213
REMARK   82  A    between atoms: _213  and  _214
REMARK   83  A    between atoms: _213  and  _216
REMARK   84  A    between atoms: _216  and  _217
REMARK   85  A    between atoms: _220  and  _222
REMARK   86  A    between atoms: _222  and  _223
REMARK   87  A    between atoms: _222  and  _225
REMARK   88  A    between atoms: _228  and  _230
REMARK   89  A    between atoms: _230  and  _231
REMARK   90  A    between atoms: _230  and  _233
REMARK   91  A    between atoms: _233  and  _234
REMARK   92  A    between atoms: _241  and  _242
REMARK   93  A    between atoms: _241  and  _244
REMARK   94  A    between atoms: _247  and  _249
REMARK   95  A    between atoms: _249  and  _250
REMARK   96  A    between atoms: _249  and  _252
REMARK   97  A    between atoms: _252  and  _253
REMARK   98  A    between atoms: _253  and  _254
REMARK   99  A    between atoms: _254  and  _255
REMARK  100  A    between atoms: _264  and  _266
REMARK  101  A    between atoms: _266  and  _267
REMARK  102  A    between atoms: _270  and  _272
REMARK  103  A    between atoms: _272  and  _273
REMARK  104  A    between atoms: _272  and  _275
REMARK  105  A    between atoms: _275  and  _276
REMARK  106  A    between atoms: _276  and  _277
REMARK  107  A    between atoms: _277  and  _278
REMARK  108  A    between atoms: _278  and  _279
REMARK  109  A    between atoms: _283  and  _285
REMARK  110  A    between atoms: _285  and  _286
REMARK  111  A    between atoms: _288  and  _290
REMARK  112  A    between atoms: _290  and  _291
REMARK  113  A    between atoms: _290  and  _293
REMARK  114  A    between atoms: _293  and  _294
REMARK  115  A    between atoms: _294  and  _295
REMARK  116  A    between atoms: _295  and  _296
REMARK  117  A    between atoms: _296  and  _297
REMARK  118  A    between atoms: _301  and  _303
REMARK  119  A    between atoms: _303  and  _304
REMARK  120  A    between atoms: _303  and  _306
REMARK  121  A    between atoms: _306  and  _307
REMARK  122  A    between atoms: _317  and  _319
REMARK  123  A    between atoms: _319  and  _320
REMARK  124  A    between atoms: _319  and  _322
REMARK  125  A    between atoms: _322  and  _323
REMARK  126  A    between atoms: _328  and  _330
REMARK  127  A    between atoms: _330  and  _331
REMARK  128  A    between atoms: _330  and  _333
REMARK  129  A    between atoms: _333  and  _334
REMARK  130  A    between atoms: _337  and  _339
REMARK  131  A    between atoms: _339  and  _340
REMARK  132  A    between atoms: _339  and  _342
REMARK  133  A    between atoms: _342  and  _343
REMARK                            x       y       z     vdW  Elec       q    Type
REMARK                         _______ _______ _______ _____ _____    ______ ____
ROOT
ATOM      1  O   HOH     1      39.812  15.166  62.312  0.00  0.00    +0.000 OA
ENDROOT
TORSDOF 0
REMARK  Name = ../refined-set-2016/2v8w/2v8w_pocket.pdb
REMARK  133 active torsions:
REMARK  status: ('A' for Active; 'I' for Inactive)
REMARK    1  A    between atoms: _1  and  _3
REMARK    2  A    between atoms: _3  and  _4
REMARK    3  A    between atoms: _3  and  _6
REMARK    4  A    between atoms: _6  and  _7
REMARK    5  A    between atoms: _13  and  _15
REMARK    6  A    between atoms: _15  and  _16
REMARK    7  A    between atoms: _15  and  _18
REMARK    8  A    between atoms: _18  and  _19
REMARK    9  A    between atoms: _24  and  _26
REMARK   10  A    between atoms: _26  and  _27
REMARK   11  A    between atoms: _26  and  _29
REMARK   12  A    between atoms: _29  and  _30
REMARK   13  A    between atoms: _33  and  _35
REMARK   14  A    between atoms: _35  and  _36
REMARK   15  A    between atoms: _35  and  _38
REMARK   16  A    between atoms: _38  and  _39
REMARK   17  A    between atoms: _49  and  _51
REMARK   18  A    between atoms: _51  and  _52
REMARK   19  A    between atoms: _51  and  _54
REMARK   20  A    between atoms: _54  and  _55
REMARK   21  A    between atoms: _55  and  _56
REMARK   22  A    between atoms: _61  and  _63
REMARK   23  A    between atoms: _63  and  _64
REMARK   24  A    between atoms: _63  and  _66
REMARK   25  A    between atoms: _66  and  _67
REMARK   26  A    between atoms: _72  and  _74
REMARK   27  A    between atoms: _74  and  _75
REMARK   28  A    between atoms: _74  and  _77
REMARK   29  A    between atoms: _77  and  _78
REMARK   30  A    between atoms: _81  and  _83
REMARK   31  A    between atoms: _83  and  _84
REMARK   32  A    between atoms: _86  and  _88
REMARK   33  A    between atoms: _88  and  _89
REMARK   34  A    between atoms: _88  and  _91
REMARK   35  A    between atoms: _93  and  _95
REMARK   36  A    between atoms: _95  and  _96
REMARK   37  A    between atoms: _95  and  _98
REMARK   38  A    between atoms: _98  and  _99
REMARK   39  A    between atoms: _102  and  _104
REMARK   40  A    between atoms: _104  and  _105
REMARK   41  A    between atoms: _104  and  _107
REMARK   42  A    between atoms: _107  and  _108
REMARK   43  A    between atoms: _110  and  _112
REMARK   44  A    between atoms: _112  and  _113
REMARK   45  A    between atoms: _112  and  _115
REMARK   46  A    between atoms: _115  and  _116
REMARK   47  A    between atoms: _122  and  _124
REMARK   48  A    between atoms: _124  and  _125
REMARK   49  A    between atoms: _124  and  _127
REMARK   50  A    between atoms: _127  and  _128
REMARK   51  A    between atoms: _128  and  _129
REMARK   52  A    between atoms: _133  and  _134
REMARK   53  A    between atoms: _139  and  _141
REMARK   54  A    between atoms: _141  and  _142
REMARK   55  A    between atoms: _141  and  _144
REMARK   56  A    between atoms: _144  and  _145
REMARK   57  A    between atoms: _145  and  _146
REMARK   58  A    between atoms: _148  and  _150
REMARK   59  A    between atoms: _150  and  _151
REMARK   60  A    between atoms: _150  and  _153
REMARK   61  A    between atoms: _153  and  _154
REMARK   62  A    between atoms: _164  and  _166
REMARK   63  A    between atoms: _166  and  _167
REMARK   64  A    between atoms: _166  and  _169
REMARK   65  A    between atoms: _169  and  _170
REMARK   66  A    between atoms: _170  and  _171
REMARK   67  A    between atoms: _174  and  _176
REMARK   68  A    between atoms: _176  and  _177
REMARK   69  A    between atoms: _176  and  _179
REMARK   70  A    between atoms: _179  and  _180
REMARK   71  A    between atoms: _183  and  _185
REMARK   72  A    between atoms: _185  and  _186
REMARK   73  A    between atoms: _185  and  _188
REMARK   74  A    between atoms: _188  and  _189
REMARK   75  A    between atoms: _194  and  _196
REMARK   76  A    between atoms: _196  and  _197
REMARK   77  A    between atoms: _196  and  _199
REMARK   78  A    between atoms: _199  and  _200
REMARK   79  A    between atoms: _200  and  _201
REMARK   80  A    between atoms: _201  and  _202
REMARK   81  A    between atoms: _211  and  _213
REMARK   82  A    between atoms: _213  and  _214
REMARK   83  A    between atoms: _213  and  _216
REMARK   84  A    between atoms: _216  and  _217
REMARK   85  A    between atoms: _220  and  _222
REMARK   86  A    between atoms: _222  and  _223
REMARK   87  A    between atoms: _222  and  _225
REMARK   88  A    between atoms: _228  and  _230
REMARK   89  A    between atoms: _230  and  _231
REMARK   90  A    between atoms: _230  and  _233
REMARK   91  A    between atoms: _233  and  _234
REMARK   92  A    between atoms: _241  and  _242
REMARK   93  A    between atoms: _241  and  _244
REMARK   94  A    between atoms: _247  and  _249
REMARK   95  A    between atoms: _249  and  _250
REMARK   96  A    between atoms: _249  and  _252
REMARK   97  A    between atoms: _252  and  _253
REMARK   98  A    between atoms: _253  and  _254
REMARK   99  A    between atoms: _254  and  _255
REMARK  100  A    between atoms: _264  and  _266
REMARK  101  A    between atoms: _266  and  _267
REMARK  102  A    between atoms: _270  and  _272
REMARK  103  A    between atoms: _272  and  _273
REMARK  104  A    between atoms: _272  and  _275
REMARK  105  A    between atoms: _275  and  _276
REMARK  106  A    between atoms: _276  and  _277
REMARK  107  A    between atoms: _277  and  _278
REMARK  108  A    between atoms: _278  and  _279
REMARK  109  A    between atoms: _283  and  _285
REMARK  110  A    between atoms: _285  and  _286
REMARK  111  A    between atoms: _288  and  _290
REMARK  112  A    between atoms: _290  and  _291
REMARK  113  A    between atoms: _290  and  _293
REMARK  114  A    between atoms: _293  and  _294
REMARK  115  A    between atoms: _294  and  _295
REMARK  116  A    between atoms: _295  and  _296
REMARK  117  A    between atoms: _296  and  _297
REMARK  118  A    between atoms: _301  and  _303
REMARK  119  A    between atoms: _303  and  _304
REMARK  120  A    between atoms: _303  and  _306
REMARK  121  A    between atoms: _306  and  _307
REMARK  122  A    between atoms: _317  and  _319
REMARK  123  A    between atoms: _319  and  _320
REMARK  124  A    between atoms: _319  and  _322
REMARK  125  A    between atoms: _322  and  _323
REMARK  126  A    between atoms: _328  and  _330
REMARK  127  A    between atoms: _330  and  _331
REMARK  128  A    between atoms: _330  and  _333
REMARK  129  A    between atoms: _333  and  _334
REMARK  130  A    between atoms: _337  and  _339
REMARK  131  A    between atoms: _339  and  _340
REMARK  132  A    between atoms: _339  and  _342
REMARK  133  A    between atoms: _342  and  _343
REMARK                            x       y       z     vdW  Elec       q    Type
REMARK                         _______ _______ _______ _____ _____    ______ ____
ROOT
ATOM      1  O   HOH     1      38.649  19.574  59.287  0.00  0.00    +0.000 OA
ENDROOT
TORSDOF 0
REMARK  Name = ../refined-set-2016/2v8w/2v8w_pocket.pdb
REMARK  133 active torsions:
REMARK  status: ('A' for Active; 'I' for Inactive)
REMARK    1  A    between atoms: _1  and  _3
REMARK    2  A    between atoms: _3  and  _4
REMARK    3  A    between atoms: _3  and  _6
REMARK    4  A    between atoms: _6  and  _7
REMARK    5  A    between atoms: _13  and  _15
REMARK    6  A    between atoms: _15  and  _16
REMARK    7  A    between atoms: _15  and  _18
REMARK    8  A    between atoms: _18  and  _19
REMARK    9  A    between atoms: _24  and  _26
REMARK   10  A    between atoms: _26  and  _27
REMARK   11  A    between atoms: _26  and  _29
REMARK   12  A    between atoms: _29  and  _30
REMARK   13  A    between atoms: _33  and  _35
REMARK   14  A    between atoms: _35  and  _36
REMARK   15  A    between atoms: _35  and  _38
REMARK   16  A    between atoms: _38  and  _39
REMARK   17  A    between atoms: _49  and  _51
REMARK   18  A    between atoms: _51  and  _52
REMARK   19  A    between atoms: _51  and  _54
REMARK   20  A    between atoms: _54  and  _55
REMARK   21  A    between atoms: _55  and  _56
REMARK   22  A    between atoms: _61  and  _63
REMARK   23  A    between atoms: _63  and  _64
REMARK   24  A    between atoms: _63  and  _66
REMARK   25  A    between atoms: _66  and  _67
REMARK   26  A    between atoms: _72  and  _74
REMARK   27  A    between atoms: _74  and  _75
REMARK   28  A    between atoms: _74  and  _77
REMARK   29  A    between atoms: _77  and  _78
REMARK   30  A    between atoms: _81  and  _83
REMARK   31  A    between atoms: _83  and  _84
REMARK   32  A    between atoms: _86  and  _88
REMARK   33  A    between atoms: _88  and  _89
REMARK   34  A    between atoms: _88  and  _91
REMARK   35  A    between atoms: _93  and  _95
REMARK   36  A    between atoms: _95  and  _96
REMARK   37  A    between atoms: _95  and  _98
REMARK   38  A    between atoms: _98  and  _99
REMARK   39  A    between atoms: _102  and  _104
REMARK   40  A    between atoms: _104  and  _105
REMARK   41  A    between atoms: _104  and  _107
REMARK   42  A    between atoms: _107  and  _108
REMARK   43  A    between atoms: _110  and  _112
REMARK   44  A    between atoms: _112  and  _113
REMARK   45  A    between atoms: _112  and  _115
REMARK   46  A    between atoms: _115  and  _116
REMARK   47  A    between atoms: _122  and  _124
REMARK   48  A    between atoms: _124  and  _125
REMARK   49  A    between atoms: _124  and  _127
REMARK   50  A    between atoms: _127  and  _128
REMARK   51  A    between atoms: _128  and  _129
REMARK   52  A    between atoms: _133  and  _134
REMARK   53  A    between atoms: _139  and  _141
REMARK   54  A    between atoms: _141  and  _142
REMARK   55  A    between atoms: _141  and  _144
REMARK   56  A    between atoms: _144  and  _145
REMARK   57  A    between atoms: _145  and  _146
REMARK   58  A    between atoms: _148  and  _150
REMARK   59  A    between atoms: _150  and  _151
REMARK   60  A    between atoms: _150  and  _153
REMARK   61  A    between atoms: _153  and  _154
REMARK   62  A    between atoms: _164  and  _166
REMARK   63  A    between atoms: _166  and  _167
REMARK   64  A    between atoms: _166  and  _169
REMARK   65  A    between atoms: _169  and  _170
REMARK   66  A    between atoms: _170  and  _171
REMARK   67  A    between atoms: _174  and  _176
REMARK   68  A    between atoms: _176  and  _177
REMARK   69  A    between atoms: _176  and  _179
REMARK   70  A    between atoms: _179  and  _180
REMARK   71  A    between atoms: _183  and  _185
REMARK   72  A    between atoms: _185  and  _186
REMARK   73  A    between atoms: _185  and  _188
REMARK   74  A    between atoms: _188  and  _189
REMARK   75  A    between atoms: _194  and  _196
REMARK   76  A    between atoms: _196  and  _197
REMARK   77  A    between atoms: _196  and  _199
REMARK   78  A    between atoms: _199  and  _200
REMARK   79  A    between atoms: _200  and  _201
REMARK   80  A    between atoms: _201  and  _202
REMARK   81  A    between atoms: _211  and  _213
REMARK   82  A    between atoms: _213  and  _214
REMARK   83  A    between atoms: _213  and  _216
REMARK   84  A    between atoms: _216  and  _217
REMARK   85  A    between atoms: _220  and  _222
REMARK   86  A    between atoms: _222  and  _223
REMARK   87  A    between atoms: _222  and  _225
REMARK   88  A    between atoms: _228  and  _230
REMARK   89  A    between atoms: _230  and  _231
REMARK   90  A    between atoms: _230  and  _233
REMARK   91  A    between atoms: _233  and  _234
REMARK   92  A    between atoms: _241  and  _242
REMARK   93  A    between atoms: _241  and  _244
REMARK   94  A    between atoms: _247  and  _249
REMARK   95  A    between atoms: _249  and  _250
REMARK   96  A    between atoms: _249  and  _252
REMARK   97  A    between atoms: _252  and  _253
REMARK   98  A    between atoms: _253  and  _254
REMARK   99  A    between atoms: _254  and  _255
REMARK  100  A    between atoms: _264  and  _266
REMARK  101  A    between atoms: _266  and  _267
REMARK  102  A    between atoms: _270  and  _272
REMARK  103  A    between atoms: _272  and  _273
REMARK  104  A    between atoms: _272  and  _275
REMARK  105  A    between atoms: _275  and  _276
REMARK  106  A    between atoms: _276  and  _277
REMARK  107  A    between atoms: _277  and  _278
REMARK  108  A    between atoms: _278  and  _279
REMARK  109  A    between atoms: _283  and  _285
REMARK  110  A    between atoms: _285  and  _286
REMARK  111  A    between atoms: _288  and  _290
REMARK  112  A    between atoms: _290  and  _291
REMARK  113  A    between atoms: _290  and  _293
REMARK  114  A    between atoms: _293  and  _294
REMARK  115  A    between atoms: _294  and  _295
REMARK  116  A    between atoms: _295  and  _296
REMARK  117  A    between atoms: _296  and  _297
REMARK  118  A    between atoms: _301  and  _303
REMARK  119  A    between atoms: _303  and  _304
REMARK  120  A    between atoms: _303  and  _306
REMARK  121  A    between atoms: _306  and  _307
REMARK  122  A    between atoms: _317  and  _319
REMARK  123  A    between atoms: _319  and  _320
REMARK  124  A    between atoms: _319  and  _322
REMARK  125  A    between atoms: _322  and  _323
REMARK  126  A    between atoms: _328  and  _330
REMARK  127  A    between atoms: _330  and  _331
REMARK  128  A    between atoms: _330  and  _333
REMARK  129  A    between atoms: _333  and  _334
REMARK  130  A    between atoms: _337  and  _339
REMARK  131  A    between atoms: _339  and  _340
REMARK  132  A    between atoms: _339  and  _342
REMARK  133  A    between atoms: _342  and  _343
REMARK                            x       y       z     vdW  Elec       q    Type
REMARK                         _______ _______ _______ _____ _____    ______ ____
ROOT
ATOM      1  O   HOH     1      37.429  14.074  53.894  0.00  0.00    +0.000 OA
ENDROOT
TORSDOF 0
REMARK  Name = ../refined-set-2016/2v8w/2v8w_pocket.pdb
REMARK  133 active torsions:
REMARK  status: ('A' for Active; 'I' for Inactive)
REMARK    1  A    between atoms: _1  and  _3
REMARK    2  A    between atoms: _3  and  _4
REMARK    3  A    between atoms: _3  and  _6
REMARK    4  A    between atoms: _6  and  _7
REMARK    5  A    between atoms: _13  and  _15
REMARK    6  A    between atoms: _15  and  _16
REMARK    7  A    between atoms: _15  and  _18
REMARK    8  A    between atoms: _18  and  _19
REMARK    9  A    between atoms: _24  and  _26
REMARK   10  A    between atoms: _26  and  _27
REMARK   11  A    between atoms: _26  and  _29
REMARK   12  A    between atoms: _29  and  _30
REMARK   13  A    between atoms: _33  and  _35
REMARK   14  A    between atoms: _35  and  _36
REMARK   15  A    between atoms: _35  and  _38
REMARK   16  A    between atoms: _38  and  _39
REMARK   17  A    between atoms: _49  and  _51
REMARK   18  A    between atoms: _51  and  _52
REMARK   19  A    between atoms: _51  and  _54
REMARK   20  A    between atoms: _54  and  _55
REMARK   21  A    between atoms: _55  and  _56
REMARK   22  A    between atoms: _61  and  _63
REMARK   23  A    between atoms: _63  and  _64
REMARK   24  A    between atoms: _63  and  _66
REMARK   25  A    between atoms: _66  and  _67
REMARK   26  A    between atoms: _72  and  _74
REMARK   27  A    between atoms: _74  and  _75
REMARK   28  A    between atoms: _74  and  _77
REMARK   29  A    between atoms: _77  and  _78
REMARK   30  A    between atoms: _81  and  _83
REMARK   31  A    between atoms: _83  and  _84
REMARK   32  A    between atoms: _86  and  _88
REMARK   33  A    between atoms: _88  and  _89
REMARK   34  A    between atoms: _88  and  _91
REMARK   35  A    between atoms: _93  and  _95
REMARK   36  A    between atoms: _95  and  _96
REMARK   37  A    between atoms: _95  and  _98
REMARK   38  A    between atoms: _98  and  _99
REMARK   39  A    between atoms: _102  and  _104
REMARK   40  A    between atoms: _104  and  _105
REMARK   41  A    between atoms: _104  and  _107
REMARK   42  A    between atoms: _107  and  _108
REMARK   43  A    between atoms: _110  and  _112
REMARK   44  A    between atoms: _112  and  _113
REMARK   45  A    between atoms: _112  and  _115
REMARK   46  A    between atoms: _115  and  _116
REMARK   47  A    between atoms: _122  and  _124
REMARK   48  A    between atoms: _124  and  _125
REMARK   49  A    between atoms: _124  and  _127
REMARK   50  A    between atoms: _127  and  _128
REMARK   51  A    between atoms: _128  and  _129
REMARK   52  A    between atoms: _133  and  _134
REMARK   53  A    between atoms: _139  and  _141
REMARK   54  A    between atoms: _141  and  _142
REMARK   55  A    between atoms: _141  and  _144
REMARK   56  A    between atoms: _144  and  _145
REMARK   57  A    between atoms: _145  and  _146
REMARK   58  A    between atoms: _148  and  _150
REMARK   59  A    between atoms: _150  and  _151
REMARK   60  A    between atoms: _150  and  _153
REMARK   61  A    between atoms: _153  and  _154
REMARK   62  A    between atoms: _164  and  _166
REMARK   63  A    between atoms: _166  and  _167
REMARK   64  A    between atoms: _166  and  _169
REMARK   65  A    between atoms: _169  and  _170
REMARK   66  A    between atoms: _170  and  _171
REMARK   67  A    between atoms: _174  and  _176
REMARK   68  A    between atoms: _176  and  _177
REMARK   69  A    between atoms: _176  and  _179
REMARK   70  A    between atoms: _179  and  _180
REMARK   71  A    between atoms: _183  and  _185
REMARK   72  A    between atoms: _185  and  _186
REMARK   73  A    between atoms: _185  and  _188
REMARK   74  A    between atoms: _188  and  _189
REMARK   75  A    between atoms: _194  and  _196
REMARK   76  A    between atoms: _196  and  _197
REMARK   77  A    between atoms: _196  and  _199
REMARK   78  A    between atoms: _199  and  _200
REMARK   79  A    between atoms: _200  and  _201
REMARK   80  A    between atoms: _201  and  _202
REMARK   81  A    between atoms: _211  and  _213
REMARK   82  A    between atoms: _213  and  _214
REMARK   83  A    between atoms: _213  and  _216
REMARK   84  A    between atoms: _216  and  _217
REMARK   85  A    between atoms: _220  and  _222
REMARK   86  A    between atoms: _222  and  _223
REMARK   87  A    between atoms: _222  and  _225
REMARK   88  A    between atoms: _228  and  _230
REMARK   89  A    between atoms: _230  and  _231
REMARK   90  A    between atoms: _230  and  _233
REMARK   91  A    between atoms: _233  and  _234
REMARK   92  A    between atoms: _241  and  _242
REMARK   93  A    between atoms: _241  and  _244
REMARK   94  A    between atoms: _247  and  _249
REMARK   95  A    between atoms: _249  and  _250
REMARK   96  A    between atoms: _249  and  _252
REMARK   97  A    between atoms: _252  and  _253
REMARK   98  A    between atoms: _253  and  _254
REMARK   99  A    between atoms: _254  and  _255
REMARK  100  A    between atoms: _264  and  _266
REMARK  101  A    between atoms: _266  and  _267
REMARK  102  A    between atoms: _270  and  _272
REMARK  103  A    between atoms: _272  and  _273
REMARK  104  A    between atoms: _272  and  _275
REMARK  105  A    between atoms: _275  and  _276
REMARK  106  A    between atoms: _276  and  _277
REMARK  107  A    between atoms: _277  and  _278
REMARK  108  A    between atoms: _278  and  _279
REMARK  109  A    between atoms: _283  and  _285
REMARK  110  A    between atoms: _285  and  _286
REMARK  111  A    between atoms: _288  and  _290
REMARK  112  A    between atoms: _290  and  _291
REMARK  113  A    between atoms: _290  and  _293
REMARK  114  A    between atoms: _293  and  _294
REMARK  115  A    between atoms: _294  and  _295
REMARK  116  A    between atoms: _295  and  _296
REMARK  117  A    between atoms: _296  and  _297
REMARK  118  A    between atoms: _301  and  _303
REMARK  119  A    between atoms: _303  and  _304
REMARK  120  A    between atoms: _303  and  _306
REMARK  121  A    between atoms: _306  and  _307
REMARK  122  A    between atoms: _317  and  _319
REMARK  123  A    between atoms: _319  and  _320
REMARK  124  A    between atoms: _319  and  _322
REMARK  125  A    between atoms: _322  and  _323
REMARK  126  A    between atoms: _328  and  _330
REMARK  127  A    between atoms: _330  and  _331
REMARK  128  A    between atoms: _330  and  _333
REMARK  129  A    between atoms: _333  and  _334
REMARK  130  A    between atoms: _337  and  _339
REMARK  131  A    between atoms: _339  and  _340
REMARK  132  A    between atoms: _339  and  _342
REMARK  133  A    between atoms: _342  and  _343
REMARK                            x       y       z     vdW  Elec       q    Type
REMARK                         _______ _______ _______ _____ _____    ______ ____
ROOT
ATOM      1  O   HOH     1      35.355   5.348  48.796  0.00  0.00    +0.000 OA
ENDROOT
TORSDOF 0
REMARK  Name = ../refined-set-2016/2v8w/2v8w_pocket.pdb
REMARK  133 active torsions:
REMARK  status: ('A' for Active; 'I' for Inactive)
REMARK    1  A    between atoms: _1  and  _3
REMARK    2  A    between atoms: _3  and  _4
REMARK    3  A    between atoms: _3  and  _6
REMARK    4  A    between atoms: _6  and  _7
REMARK    5  A    between atoms: _13  and  _15
REMARK    6  A    between atoms: _15  and  _16
REMARK    7  A    between atoms: _15  and  _18
REMARK    8  A    between atoms: _18  and  _19
REMARK    9  A    between atoms: _24  and  _26
REMARK   10  A    between atoms: _26  and  _27
REMARK   11  A    between atoms: _26  and  _29
REMARK   12  A    between atoms: _29  and  _30
REMARK   13  A    between atoms: _33  and  _35
REMARK   14  A    between atoms: _35  and  _36
REMARK   15  A    between atoms: _35  and  _38
REMARK   16  A    between atoms: _38  and  _39
REMARK   17  A    between atoms: _49  and  _51
REMARK   18  A    between atoms: _51  and  _52
REMARK   19  A    between atoms: _51  and  _54
REMARK   20  A    between atoms: _54  and  _55
REMARK   21  A    between atoms: _55  and  _56
REMARK   22  A    between atoms: _61  and  _63
REMARK   23  A    between atoms: _63  and  _64
REMARK   24  A    between atoms: _63  and  _66
REMARK   25  A    between atoms: _66  and  _67
REMARK   26  A    between atoms: _72  and  _74
REMARK   27  A    between atoms: _74  and  _75
REMARK   28  A    between atoms: _74  and  _77
REMARK   29  A    between atoms: _77  and  _78
REMARK   30  A    between atoms: _81  and  _83
REMARK   31  A    between atoms: _83  and  _84
REMARK   32  A    between atoms: _86  and  _88
REMARK   33  A    between atoms: _88  and  _89
REMARK   34  A    between atoms: _88  and  _91
REMARK   35  A    between atoms: _93  and  _95
REMARK   36  A    between atoms: _95  and  _96
REMARK   37  A    between atoms: _95  and  _98
REMARK   38  A    between atoms: _98  and  _99
REMARK   39  A    between atoms: _102  and  _104
REMARK   40  A    between atoms: _104  and  _105
REMARK   41  A    between atoms: _104  and  _107
REMARK   42  A    between atoms: _107  and  _108
REMARK   43  A    between atoms: _110  and  _112
REMARK   44  A    between atoms: _112  and  _113
REMARK   45  A    between atoms: _112  and  _115
REMARK   46  A    between atoms: _115  and  _116
REMARK   47  A    between atoms: _122  and  _124
REMARK   48  A    between atoms: _124  and  _125
REMARK   49  A    between atoms: _124  and  _127
REMARK   50  A    between atoms: _127  and  _128
REMARK   51  A    between atoms: _128  and  _129
REMARK   52  A    between atoms: _133  and  _134
REMARK   53  A    between atoms: _139  and  _141
REMARK   54  A    between atoms: _141  and  _142
REMARK   55  A    between atoms: _141  and  _144
REMARK   56  A    between atoms: _144  and  _145
REMARK   57  A    between atoms: _145  and  _146
REMARK   58  A    between atoms: _148  and  _150
REMARK   59  A    between atoms: _150  and  _151
REMARK   60  A    between atoms: _150  and  _153
REMARK   61  A    between atoms: _153  and  _154
REMARK   62  A    between atoms: _164  and  _166
REMARK   63  A    between atoms: _166  and  _167
REMARK   64  A    between atoms: _166  and  _169
REMARK   65  A    between atoms: _169  and  _170
REMARK   66  A    between atoms: _170  and  _171
REMARK   67  A    between atoms: _174  and  _176
REMARK   68  A    between atoms: _176  and  _177
REMARK   69  A    between atoms: _176  and  _179
REMARK   70  A    between atoms: _179  and  _180
REMARK   71  A    between atoms: _183  and  _185
REMARK   72  A    between atoms: _185  and  _186
REMARK   73  A    between atoms: _185  and  _188
REMARK   74  A    between atoms: _188  and  _189
REMARK   75  A    between atoms: _194  and  _196
REMARK   76  A    between atoms: _196  and  _197
REMARK   77  A    between atoms: _196  and  _199
REMARK   78  A    between atoms: _199  and  _200
REMARK   79  A    between atoms: _200  and  _201
REMARK   80  A    between atoms: _201  and  _202
REMARK   81  A    between atoms: _211  and  _213
REMARK   82  A    between atoms: _213  and  _214
REMARK   83  A    between atoms: _213  and  _216
REMARK   84  A    between atoms: _216  and  _217
REMARK   85  A    between atoms: _220  and  _222
REMARK   86  A    between atoms: _222  and  _223
REMARK   87  A    between atoms: _222  and  _225
REMARK   88  A    between atoms: _228  and  _230
REMARK   89  A    between atoms: _230  and  _231
REMARK   90  A    between atoms: _230  and  _233
REMARK   91  A    between atoms: _233  and  _234
REMARK   92  A    between atoms: _241  and  _242
REMARK   93  A    between atoms: _241  and  _244
REMARK   94  A    between atoms: _247  and  _249
REMARK   95  A    between atoms: _249  and  _250
REMARK   96  A    between atoms: _249  and  _252
REMARK   97  A    between atoms: _252  and  _253
REMARK   98  A    between atoms: _253  and  _254
REMARK   99  A    between atoms: _254  and  _255
REMARK  100  A    between atoms: _264  and  _266
REMARK  101  A    between atoms: _266  and  _267
REMARK  102  A    between atoms: _270  and  _272
REMARK  103  A    between atoms: _272  and  _273
REMARK  104  A    between atoms: _272  and  _275
REMARK  105  A    between atoms: _275  and  _276
REMARK  106  A    between atoms: _276  and  _277
REMARK  107  A    between atoms: _277  and  _278
REMARK  108  A    between atoms: _278  and  _279
REMARK  109  A    between atoms: _283  and  _285
REMARK  110  A    between atoms: _285  and  _286
REMARK  111  A    between atoms: _288  and  _290
REMARK  112  A    between atoms: _290  and  _291
REMARK  113  A    between atoms: _290  and  _293
REMARK  114  A    between atoms: _293  and  _294
REMARK  115  A    between atoms: _294  and  _295
REMARK  116  A    between atoms: _295  and  _296
REMARK  117  A    between atoms: _296  and  _297
REMARK  118  A    between atoms: _301  and  _303
REMARK  119  A    between atoms: _303  and  _304
REMARK  120  A    between atoms: _303  and  _306
REMARK  121  A    between atoms: _306  and  _307
REMARK  122  A    between atoms: _317  and  _319
REMARK  123  A    between atoms: _319  and  _320
REMARK  124  A    between atoms: _319  and  _322
REMARK  125  A    between atoms: _322  and  _323
REMARK  126  A    between atoms: _328  and  _330
REMARK  127  A    between atoms: _330  and  _331
REMARK  128  A    between atoms: _330  and  _333
REMARK  129  A    between atoms: _333  and  _334
REMARK  130  A    between atoms: _337  and  _339
REMARK  131  A    between atoms: _339  and  _340
REMARK  132  A    between atoms: _339  and  _342
REMARK  133  A    between atoms: _342  and  _343
REMARK                            x       y       z     vdW  Elec       q    Type
REMARK                         _______ _______ _______ _____ _____    ______ ____
ROOT
ATOM      1  O   HOH     1      33.838  10.272  60.940  0.00  0.00    +0.000 OA
ENDROOT
TORSDOF 0
REMARK  Name = ../refined-set-2016/2v8w/2v8w_pocket.pdb
REMARK  133 active torsions:
REMARK  status: ('A' for Active; 'I' for Inactive)
REMARK    1  A    between atoms: _1  and  _3
REMARK    2  A    between atoms: _3  and  _4
REMARK    3  A    between atoms: _3  and  _6
REMARK    4  A    between atoms: _6  and  _7
REMARK    5  A    between atoms: _13  and  _15
REMARK    6  A    between atoms: _15  and  _16
REMARK    7  A    between atoms: _15  and  _18
REMARK    8  A    between atoms: _18  and  _19
REMARK    9  A    between atoms: _24  and  _26
REMARK   10  A    between atoms: _26  and  _27
REMARK   11  A    between atoms: _26  and  _29
REMARK   12  A    between atoms: _29  and  _30
REMARK   13  A    between atoms: _33  and  _35
REMARK   14  A    between atoms: _35  and  _36
REMARK   15  A    between atoms: _35  and  _38
REMARK   16  A    between atoms: _38  and  _39
REMARK   17  A    between atoms: _49  and  _51
REMARK   18  A    between atoms: _51  and  _52
REMARK   19  A    between atoms: _51  and  _54
REMARK   20  A    between atoms: _54  and  _55
REMARK   21  A    between atoms: _55  and  _56
REMARK   22  A    between atoms: _61  and  _63
REMARK   23  A    between atoms: _63  and  _64
REMARK   24  A    between atoms: _63  and  _66
REMARK   25  A    between atoms: _66  and  _67
REMARK   26  A    between atoms: _72  and  _74
REMARK   27  A    between atoms: _74  and  _75
REMARK   28  A    between atoms: _74  and  _77
REMARK   29  A    between atoms: _77  and  _78
REMARK   30  A    between atoms: _81  and  _83
REMARK   31  A    between atoms: _83  and  _84
REMARK   32  A    between atoms: _86  and  _88
REMARK   33  A    between atoms: _88  and  _89
REMARK   34  A    between atoms: _88  and  _91
REMARK   35  A    between atoms: _93  and  _95
REMARK   36  A    between atoms: _95  and  _96
REMARK   37  A    between atoms: _95  and  _98
REMARK   38  A    between atoms: _98  and  _99
REMARK   39  A    between atoms: _102  and  _104
REMARK   40  A    between atoms: _104  and  _105
REMARK   41  A    between atoms: _104  and  _107
REMARK   42  A    between atoms: _107  and  _108
REMARK   43  A    between atoms: _110  and  _112
REMARK   44  A    between atoms: _112  and  _113
REMARK   45  A    between atoms: _112  and  _115
REMARK   46  A    between atoms: _115  and  _116
REMARK   47  A    between atoms: _122  and  _124
REMARK   48  A    between atoms: _124  and  _125
REMARK   49  A    between atoms: _124  and  _127
REMARK   50  A    between atoms: _127  and  _128
REMARK   51  A    between atoms: _128  and  _129
REMARK   52  A    between atoms: _133  and  _134
REMARK   53  A    between atoms: _139  and  _141
REMARK   54  A    between atoms: _141  and  _142
REMARK   55  A    between atoms: _141  and  _144
REMARK   56  A    between atoms: _144  and  _145
REMARK   57  A    between atoms: _145  and  _146
REMARK   58  A    between atoms: _148  and  _150
REMARK   59  A    between atoms: _150  and  _151
REMARK   60  A    between atoms: _150  and  _153
REMARK   61  A    between atoms: _153  and  _154
REMARK   62  A    between atoms: _164  and  _166
REMARK   63  A    between atoms: _166  and  _167
REMARK   64  A    between atoms: _166  and  _169
REMARK   65  A    between atoms: _169  and  _170
REMARK   66  A    between atoms: _170  and  _171
REMARK   67  A    between atoms: _174  and  _176
REMARK   68  A    between atoms: _176  and  _177
REMARK   69  A    between atoms: _176  and  _179
REMARK   70  A    between atoms: _179  and  _180
REMARK   71  A    between atoms: _183  and  _185
REMARK   72  A    between atoms: _185  and  _186
REMARK   73  A    between atoms: _185  and  _188
REMARK   74  A    between atoms: _188  and  _189
REMARK   75  A    between atoms: _194  and  _196
REMARK   76  A    between atoms: _196  and  _197
REMARK   77  A    between atoms: _196  and  _199
REMARK   78  A    between atoms: _199  and  _200
REMARK   79  A    between atoms: _200  and  _201
REMARK   80  A    between atoms: _201  and  _202
REMARK   81  A    between atoms: _211  and  _213
REMARK   82  A    between atoms: _213  and  _214
REMARK   83  A    between atoms: _213  and  _216
REMARK   84  A    between atoms: _216  and  _217
REMARK   85  A    between atoms: _220  and  _222
REMARK   86  A    between atoms: _222  and  _223
REMARK   87  A    between atoms: _222  and  _225
REMARK   88  A    between atoms: _228  and  _230
REMARK   89  A    between atoms: _230  and  _231
REMARK   90  A    between atoms: _230  and  _233
REMARK   91  A    between atoms: _233  and  _234
REMARK   92  A    between atoms: _241  and  _242
REMARK   93  A    between atoms: _241  and  _244
REMARK   94  A    between atoms: _247  and  _249
REMARK   95  A    between atoms: _249  and  _250
REMARK   96  A    between atoms: _249  and  _252
REMARK   97  A    between atoms: _252  and  _253
REMARK   98  A    between atoms: _253  and  _254
REMARK   99  A    between atoms: _254  and  _255
REMARK  100  A    between atoms: _264  and  _266
REMARK  101  A    between atoms: _266  and  _267
REMARK  102  A    between atoms: _270  and  _272
REMARK  103  A    between atoms: _272  and  _273
REMARK  104  A    between atoms: _272  and  _275
REMARK  105  A    between atoms: _275  and  _276
REMARK  106  A    between atoms: _276  and  _277
REMARK  107  A    between atoms: _277  and  _278
REMARK  108  A    between atoms: _278  and  _279
REMARK  109  A    between atoms: _283  and  _285
REMARK  110  A    between atoms: _285  and  _286
REMARK  111  A    between atoms: _288  and  _290
REMARK  112  A    between atoms: _290  and  _291
REMARK  113  A    between atoms: _290  and  _293
REMARK  114  A    between atoms: _293  and  _294
REMARK  115  A    between atoms: _294  and  _295
REMARK  116  A    between atoms: _295  and  _296
REMARK  117  A    between atoms: _296  and  _297
REMARK  118  A    between atoms: _301  and  _303
REMARK  119  A    between atoms: _303  and  _304
REMARK  120  A    between atoms: _303  and  _306
REMARK  121  A    between atoms: _306  and  _307
REMARK  122  A    between atoms: _317  and  _319
REMARK  123  A    between atoms: _319  and  _320
REMARK  124  A    between atoms: _319  and  _322
REMARK  125  A    between atoms: _322  and  _323
REMARK  126  A    between atoms: _328  and  _330
REMARK  127  A    between atoms: _330  and  _331
REMARK  128  A    between atoms: _330  and  _333
REMARK  129  A    between atoms: _333  and  _334
REMARK  130  A    between atoms: _337  and  _339
REMARK  131  A    between atoms: _339  and  _340
REMARK  132  A    between atoms: _339  and  _342
REMARK  133  A    between atoms: _342  and  _343
REMARK                            x       y       z     vdW  Elec       q    Type
REMARK                         _______ _______ _______ _____ _____    ______ ____
ROOT
ATOM      1  O   HOH     1      35.494  11.868  53.900  0.00  0.00    +0.000 OA
ENDROOT
TORSDOF 0
REMARK  Name = ../refined-set-2016/2v8w/2v8w_pocket.pdb
REMARK  133 active torsions:
REMARK  status: ('A' for Active; 'I' for Inactive)
REMARK    1  A    between atoms: _1  and  _3
REMARK    2  A    between atoms: _3  and  _4
REMARK    3  A    between atoms: _3  and  _6
REMARK    4  A    between atoms: _6  and  _7
REMARK    5  A    between atoms: _13  and  _15
REMARK    6  A    between atoms: _15  and  _16
REMARK    7  A    between atoms: _15  and  _18
REMARK    8  A    between atoms: _18  and  _19
REMARK    9  A    between atoms: _24  and  _26
REMARK   10  A    between atoms: _26  and  _27
REMARK   11  A    between atoms: _26  and  _29
REMARK   12  A    between atoms: _29  and  _30
REMARK   13  A    between atoms: _33  and  _35
REMARK   14  A    between atoms: _35  and  _36
REMARK   15  A    between atoms: _35  and  _38
REMARK   16  A    between atoms: _38  and  _39
REMARK   17  A    between atoms: _49  and  _51
REMARK   18  A    between atoms: _51  and  _52
REMARK   19  A    between atoms: _51  and  _54
REMARK   20  A    between atoms: _54  and  _55
REMARK   21  A    between atoms: _55  and  _56
REMARK   22  A    between atoms: _61  and  _63
REMARK   23  A    between atoms: _63  and  _64
REMARK   24  A    between atoms: _63  and  _66
REMARK   25  A    between atoms: _66  and  _67
REMARK   26  A    between atoms: _72  and  _74
REMARK   27  A    between atoms: _74  and  _75
REMARK   28  A    between atoms: _74  and  _77
REMARK   29  A    between atoms: _77  and  _78
REMARK   30  A    between atoms: _81  and  _83
REMARK   31  A    between atoms: _83  and  _84
REMARK   32  A    between atoms: _86  and  _88
REMARK   33  A    between atoms: _88  and  _89
REMARK   34  A    between atoms: _88  and  _91
REMARK   35  A    between atoms: _93  and  _95
REMARK   36  A    between atoms: _95  and  _96
REMARK   37  A    between atoms: _95  and  _98
REMARK   38  A    between atoms: _98  and  _99
REMARK   39  A    between atoms: _102  and  _104
REMARK   40  A    between atoms: _104  and  _105
REMARK   41  A    between atoms: _104  and  _107
REMARK   42  A    between atoms: _107  and  _108
REMARK   43  A    between atoms: _110  and  _112
REMARK   44  A    between atoms: _112  and  _113
REMARK   45  A    between atoms: _112  and  _115
REMARK   46  A    between atoms: _115  and  _116
REMARK   47  A    between atoms: _122  and  _124
REMARK   48  A    between atoms: _124  and  _125
REMARK   49  A    between atoms: _124  and  _127
REMARK   50  A    between atoms: _127  and  _128
REMARK   51  A    between atoms: _128  and  _129
REMARK   52  A    between atoms: _133  and  _134
REMARK   53  A    between atoms: _139  and  _141
REMARK   54  A    between atoms: _141  and  _142
REMARK   55  A    between atoms: _141  and  _144
REMARK   56  A    between atoms: _144  and  _145
REMARK   57  A    between atoms: _145  and  _146
REMARK   58  A    between atoms: _148  and  _150
REMARK   59  A    between atoms: _150  and  _151
REMARK   60  A    between atoms: _150  and  _153
REMARK   61  A    between atoms: _153  and  _154
REMARK   62  A    between atoms: _164  and  _166
REMARK   63  A    between atoms: _166  and  _167
REMARK   64  A    between atoms: _166  and  _169
REMARK   65  A    between atoms: _169  and  _170
REMARK   66  A    between atoms: _170  and  _171
REMARK   67  A    between atoms: _174  and  _176
REMARK   68  A    between atoms: _176  and  _177
REMARK   69  A    between atoms: _176  and  _179
REMARK   70  A    between atoms: _179  and  _180
REMARK   71  A    between atoms: _183  and  _185
REMARK   72  A    between atoms: _185  and  _186
REMARK   73  A    between atoms: _185  and  _188
REMARK   74  A    between atoms: _188  and  _189
REMARK   75  A    between atoms: _194  and  _196
REMARK   76  A    between atoms: _196  and  _197
REMARK   77  A    between atoms: _196  and  _199
REMARK   78  A    between atoms: _199  and  _200
REMARK   79  A    between atoms: _200  and  _201
REMARK   80  A    between atoms: _201  and  _202
REMARK   81  A    between atoms: _211  and  _213
REMARK   82  A    between atoms: _213  and  _214
REMARK   83  A    between atoms: _213  and  _216
REMARK   84  A    between atoms: _216  and  _217
REMARK   85  A    between atoms: _220  and  _222
REMARK   86  A    between atoms: _222  and  _223
REMARK   87  A    between atoms: _222  and  _225
REMARK   88  A    between atoms: _228  and  _230
REMARK   89  A    between atoms: _230  and  _231
REMARK   90  A    between atoms: _230  and  _233
REMARK   91  A    between atoms: _233  and  _234
REMARK   92  A    between atoms: _241  and  _242
REMARK   93  A    between atoms: _241  and  _244
REMARK   94  A    between atoms: _247  and  _249
REMARK   95  A    between atoms: _249  and  _250
REMARK   96  A    between atoms: _249  and  _252
REMARK   97  A    between atoms: _252  and  _253
REMARK   98  A    between atoms: _253  and  _254
REMARK   99  A    between atoms: _254  and  _255
REMARK  100  A    between atoms: _264  and  _266
REMARK  101  A    between atoms: _266  and  _267
REMARK  102  A    between atoms: _270  and  _272
REMARK  103  A    between atoms: _272  and  _273
REMARK  104  A    between atoms: _272  and  _275
REMARK  105  A    between atoms: _275  and  _276
REMARK  106  A    between atoms: _276  and  _277
REMARK  107  A    between atoms: _277  and  _278
REMARK  108  A    between atoms: _278  and  _279
REMARK  109  A    between atoms: _283  and  _285
REMARK  110  A    between atoms: _285  and  _286
REMARK  111  A    between atoms: _288  and  _290
REMARK  112  A    between atoms: _290  and  _291
REMARK  113  A    between atoms: _290  and  _293
REMARK  114  A    between atoms: _293  and  _294
REMARK  115  A    between atoms: _294  and  _295
REMARK  116  A    between atoms: _295  and  _296
REMARK  117  A    between atoms: _296  and  _297
REMARK  118  A    between atoms: _301  and  _303
REMARK  119  A    between atoms: _303  and  _304
REMARK  120  A    between atoms: _303  and  _306
REMARK  121  A    between atoms: _306  and  _307
REMARK  122  A    between atoms: _317  and  _319
REMARK  123  A    between atoms: _319  and  _320
REMARK  124  A    between atoms: _319  and  _322
REMARK  125  A    between atoms: _322  and  _323
REMARK  126  A    between atoms: _328  and  _330
REMARK  127  A    between atoms: _330  and  _331
REMARK  128  A    between atoms: _330  and  _333
REMARK  129  A    between atoms: _333  and  _334
REMARK  130  A    between atoms: _337  and  _339
REMARK  131  A    between atoms: _339  and  _340
REMARK  132  A    between atoms: _339  and  _342
REMARK  133  A    between atoms: _342  and  _343
REMARK                            x       y       z     vdW  Elec       q    Type
REMARK                         _______ _______ _______ _____ _____    ______ ____
ROOT
ATOM      1  O   HOH     1      37.754  10.114  54.443  0.00  0.00    +0.000 OA
ENDROOT
TORSDOF 0
REMARK  Name = ../refined-set-2016/2v8w/2v8w_pocket.pdb
REMARK  133 active torsions:
REMARK  status: ('A' for Active; 'I' for Inactive)
REMARK    1  A    between atoms: _1  and  _3
REMARK    2  A    between atoms: _3  and  _4
REMARK    3  A    between atoms: _3  and  _6
REMARK    4  A    between atoms: _6  and  _7
REMARK    5  A    between atoms: _13  and  _15
REMARK    6  A    between atoms: _15  and  _16
REMARK    7  A    between atoms: _15  and  _18
REMARK    8  A    between atoms: _18  and  _19
REMARK    9  A    between atoms: _24  and  _26
REMARK   10  A    between atoms: _26  and  _27
REMARK   11  A    between atoms: _26  and  _29
REMARK   12  A    between atoms: _29  and  _30
REMARK   13  A    between atoms: _33  and  _35
REMARK   14  A    between atoms: _35  and  _36
REMARK   15  A    between atoms: _35  and  _38
REMARK   16  A    between atoms: _38  and  _39
REMARK   17  A    between atoms: _49  and  _51
REMARK   18  A    between atoms: _51  and  _52
REMARK   19  A    between atoms: _51  and  _54
REMARK   20  A    between atoms: _54  and  _55
REMARK   21  A    between atoms: _55  and  _56
REMARK   22  A    between atoms: _61  and  _63
REMARK   23  A    between atoms: _63  and  _64
REMARK   24  A    between atoms: _63  and  _66
REMARK   25  A    between atoms: _66  and  _67
REMARK   26  A    between atoms: _72  and  _74
REMARK   27  A    between atoms: _74  and  _75
REMARK   28  A    between atoms: _74  and  _77
REMARK   29  A    between atoms: _77  and  _78
REMARK   30  A    between atoms: _81  and  _83
REMARK   31  A    between atoms: _83  and  _84
REMARK   32  A    between atoms: _86  and  _88
REMARK   33  A    between atoms: _88  and  _89
REMARK   34  A    between atoms: _88  and  _91
REMARK   35  A    between atoms: _93  and  _95
REMARK   36  A    between atoms: _95  and  _96
REMARK   37  A    between atoms: _95  and  _98
REMARK   38  A    between atoms: _98  and  _99
REMARK   39  A    between atoms: _102  and  _104
REMARK   40  A    between atoms: _104  and  _105
REMARK   41  A    between atoms: _104  and  _107
REMARK   42  A    between atoms: _107  and  _108
REMARK   43  A    between atoms: _110  and  _112
REMARK   44  A    between atoms: _112  and  _113
REMARK   45  A    between atoms: _112  and  _115
REMARK   46  A    between atoms: _115  and  _116
REMARK   47  A    between atoms: _122  and  _124
REMARK   48  A    between atoms: _124  and  _125
REMARK   49  A    between atoms: _124  and  _127
REMARK   50  A    between atoms: _127  and  _128
REMARK   51  A    between atoms: _128  and  _129
REMARK   52  A    between atoms: _133  and  _134
REMARK   53  A    between atoms: _139  and  _141
REMARK   54  A    between atoms: _141  and  _142
REMARK   55  A    between atoms: _141  and  _144
REMARK   56  A    between atoms: _144  and  _145
REMARK   57  A    between atoms: _145  and  _146
REMARK   58  A    between atoms: _148  and  _150
REMARK   59  A    between atoms: _150  and  _151
REMARK   60  A    between atoms: _150  and  _153
REMARK   61  A    between atoms: _153  and  _154
REMARK   62  A    between atoms: _164  and  _166
REMARK   63  A    between atoms: _166  and  _167
REMARK   64  A    between atoms: _166  and  _169
REMARK   65  A    between atoms: _169  and  _170
REMARK   66  A    between atoms: _170  and  _171
REMARK   67  A    between atoms: _174  and  _176
REMARK   68  A    between atoms: _176  and  _177
REMARK   69  A    between atoms: _176  and  _179
REMARK   70  A    between atoms: _179  and  _180
REMARK   71  A    between atoms: _183  and  _185
REMARK   72  A    between atoms: _185  and  _186
REMARK   73  A    between atoms: _185  and  _188
REMARK   74  A    between atoms: _188  and  _189
REMARK   75  A    between atoms: _194  and  _196
REMARK   76  A    between atoms: _196  and  _197
REMARK   77  A    between atoms: _196  and  _199
REMARK   78  A    between atoms: _199  and  _200
REMARK   79  A    between atoms: _200  and  _201
REMARK   80  A    between atoms: _201  and  _202
REMARK   81  A    between atoms: _211  and  _213
REMARK   82  A    between atoms: _213  and  _214
REMARK   83  A    between atoms: _213  and  _216
REMARK   84  A    between atoms: _216  and  _217
REMARK   85  A    between atoms: _220  and  _222
REMARK   86  A    between atoms: _222  and  _223
REMARK   87  A    between atoms: _222  and  _225
REMARK   88  A    between atoms: _228  and  _230
REMARK   89  A    between atoms: _230  and  _231
REMARK   90  A    between atoms: _230  and  _233
REMARK   91  A    between atoms: _233  and  _234
REMARK   92  A    between atoms: _241  and  _242
REMARK   93  A    between atoms: _241  and  _244
REMARK   94  A    between atoms: _247  and  _249
REMARK   95  A    between atoms: _249  and  _250
REMARK   96  A    between atoms: _249  and  _252
REMARK   97  A    between atoms: _252  and  _253
REMARK   98  A    between atoms: _253  and  _254
REMARK   99  A    between atoms: _254  and  _255
REMARK  100  A    between atoms: _264  and  _266
REMARK  101  A    between atoms: _266  and  _267
REMARK  102  A    between atoms: _270  and  _272
REMARK  103  A    between atoms: _272  and  _273
REMARK  104  A    between atoms: _272  and  _275
REMARK  105  A    between atoms: _275  and  _276
REMARK  106  A    between atoms: _276  and  _277
REMARK  107  A    between atoms: _277  and  _278
REMARK  108  A    between atoms: _278  and  _279
REMARK  109  A    between atoms: _283  and  _285
REMARK  110  A    between atoms: _285  and  _286
REMARK  111  A    between atoms: _288  and  _290
REMARK  112  A    between atoms: _290  and  _291
REMARK  113  A    between atoms: _290  and  _293
REMARK  114  A    between atoms: _293  and  _294
REMARK  115  A    between atoms: _294  and  _295
REMARK  116  A    between atoms: _295  and  _296
REMARK  117  A    between atoms: _296  and  _297
REMARK  118  A    between atoms: _301  and  _303
REMARK  119  A    between atoms: _303  and  _304
REMARK  120  A    between atoms: _303  and  _306
REMARK  121  A    between atoms: _306  and  _307
REMARK  122  A    between atoms: _317  and  _319
REMARK  123  A    between atoms: _319  and  _320
REMARK  124  A    between atoms: _319  and  _322
REMARK  125  A    between atoms: _322  and  _323
REMARK  126  A    between atoms: _328  and  _330
REMARK  127  A    between atoms: _330  and  _331
REMARK  128  A    between atoms: _330  and  _333
REMARK  129  A    between atoms: _333  and  _334
REMARK  130  A    between atoms: _337  and  _339
REMARK  131  A    between atoms: _339  and  _340
REMARK  132  A    between atoms: _339  and  _342
REMARK  133  A    between atoms: _342  and  _343
REMARK                            x       y       z     vdW  Elec       q    Type
REMARK                         _______ _______ _______ _____ _____    ______ ____
ROOT
ATOM      1  O   HOH     1      34.700  14.873  55.278  0.00  0.00    +0.000 OA
ENDROOT
TORSDOF 0
