REMARK  Name = ../refined-set-2016/3ibi/3ibi_pocket.pdb
REMARK  150 active torsions:
REMARK  status: ('A' for Active; 'I' for Inactive)
REMARK    1  A    between atoms: _1  and  _3
REMARK    2  A    between atoms: _3  and  _4
REMARK    3  A    between atoms: _3  and  _6
REMARK    4  A    between atoms: _6  and  _7
REMARK    5  A    between atoms: _17  and  _19
REMARK    6  A    between atoms: _19  and  _20
REMARK    7  A    between atoms: _19  and  _22
REMARK    8  A    between atoms: _22  and  _23
REMARK    9  A    between atoms: _28  and  _29
REMARK   10  A    between atoms: _31  and  _33
REMARK   11  A    between atoms: _33  and  _34
REMARK   12  A    between atoms: _33  and  _36
REMARK   13  A    between atoms: _36  and  _37
REMARK   14  A    between atoms: _40  and  _41
REMARK   15  A    between atoms: _46  and  _48
REMARK   16  A    between atoms: _48  and  _49
REMARK   17  A    between atoms: _48  and  _51
REMARK   18  A    between atoms: _51  and  _52
REMARK   19  A    between atoms: _57  and  _59
REMARK   20  A    between atoms: _59  and  _60
REMARK   21  A    between atoms: _63  and  _65
REMARK   22  A    between atoms: _65  and  _66
REMARK   23  A    between atoms: _65  and  _68
REMARK   24  A    between atoms: _68  and  _69
REMARK   25  A    between atoms: _74  and  _76
REMARK   26  A    between atoms: _76  and  _77
REMARK   27  A    between atoms: _76  and  _79
REMARK   28  A    between atoms: _79  and  _80
REMARK   29  A    between atoms: _83  and  _85
REMARK   30  A    between atoms: _85  and  _86
REMARK   31  A    between atoms: _85  and  _88
REMARK   32  A    between atoms: _88  and  _89
REMARK   33  A    between atoms: _89  and  _90
REMARK   34  A    between atoms: _95  and  _97
REMARK   35  A    between atoms: _97  and  _98
REMARK   36  A    between atoms: _97  and  _100
REMARK   37  A    between atoms: _100  and  _101
REMARK   38  A    between atoms: _107  and  _109
REMARK   39  A    between atoms: _120  and  _123
REMARK   40  A    between atoms: _123  and  _124
REMARK   41  A    between atoms: _132  and  _133
REMARK   42  A    between atoms: _141  and  _143
REMARK   43  A    between atoms: _143  and  _144
REMARK   44  A    between atoms: _143  and  _146
REMARK   45  A    between atoms: _146  and  _147
REMARK   46  A    between atoms: _147  and  _148
REMARK   47  A    between atoms: _151  and  _153
REMARK   48  A    between atoms: _153  and  _154
REMARK   49  A    between atoms: _153  and  _156
REMARK   50  A    between atoms: _156  and  _157
REMARK   51  A    between atoms: _162  and  _164
REMARK   52  A    between atoms: _164  and  _165
REMARK   53  A    between atoms: _164  and  _167
REMARK   54  A    between atoms: _167  and  _168
REMARK   55  A    between atoms: _168  and  _169
REMARK   56  A    between atoms: _172  and  _174
REMARK   57  A    between atoms: _174  and  _175
REMARK   58  A    between atoms: _174  and  _177
REMARK   59  A    between atoms: _177  and  _178
REMARK   60  A    between atoms: _181  and  _183
REMARK   61  A    between atoms: _183  and  _184
REMARK   62  A    between atoms: _183  and  _186
REMARK   63  A    between atoms: _186  and  _187
REMARK   64  A    between atoms: _188  and  ZN_420
REMARK   65  A    between atoms: _192  and  _194
REMARK   66  A    between atoms: _194  and  _195
REMARK   67  A    between atoms: _194  and  _197
REMARK   68  A    between atoms: _197  and  _198
REMARK   69  A    between atoms: _201  and  _203
REMARK   70  A    between atoms: _203  and  _204
REMARK   71  A    between atoms: _203  and  _206
REMARK   72  A    between atoms: _209  and  _211
REMARK   73  A    between atoms: _211  and  _212
REMARK   74  A    between atoms: _211  and  _214
REMARK   75  A    between atoms: _214  and  _215
REMARK   76  A    between atoms: _220  and  _222
REMARK   77  A    between atoms: _222  and  _223
REMARK   78  A    between atoms: _222  and  _225
REMARK   79  A    between atoms: _225  and  _226
REMARK   80  A    between atoms: _232  and  _234
REMARK   81  A    between atoms: _234  and  _235
REMARK   82  A    between atoms: _237  and  _239
REMARK   83  A    between atoms: _239  and  _240
REMARK   84  A    between atoms: _239  and  _242
REMARK   85  A    between atoms: _245  and  _247
REMARK   86  A    between atoms: _247  and  _248
REMARK   87  A    between atoms: _247  and  _250
REMARK   88  A    between atoms: _250  and  _251
REMARK   89  A    between atoms: _251  and  _252
REMARK   90  A    between atoms: _257  and  _259
REMARK   91  A    between atoms: _259  and  _260
REMARK   92  A    between atoms: _259  and  _262
REMARK   93  A    between atoms: _262  and  _263
REMARK   94  A    between atoms: _266  and  _268
REMARK   95  A    between atoms: _268  and  _269
REMARK   96  A    between atoms: _272  and  _274
REMARK   97  A    between atoms: _274  and  _275
REMARK   98  A    between atoms: _274  and  _277
REMARK   99  A    between atoms: _280  and  _282
REMARK  100  A    between atoms: _282  and  _283
REMARK  101  A    between atoms: _282  and  _285
REMARK  102  A    between atoms: _285  and  _286
REMARK  103  A    between atoms: _289  and  _291
REMARK  104  A    between atoms: _291  and  _292
REMARK  105  A    between atoms: _294  and  _296
REMARK  106  A    between atoms: _296  and  _297
REMARK  107  A    between atoms: _296  and  _299
REMARK  108  A    between atoms: _299  and  _300
REMARK  109  A    between atoms: _302  and  _304
REMARK  110  A    between atoms: _304  and  _305
REMARK  111  A    between atoms: _304  and  _307
REMARK  112  A    between atoms: _307  and  _308
REMARK  113  A    between atoms: _311  and  _313
REMARK  114  A    between atoms: _313  and  _314
REMARK  115  A    between atoms: _313  and  _316
REMARK  116  A    between atoms: _316  and  _317
REMARK  117  A    between atoms: _320  and  _322
REMARK  118  A    between atoms: _322  and  _323
REMARK  119  A    between atoms: _322  and  _325
REMARK  120  A    between atoms: _325  and  _326
REMARK  121  A    between atoms: _330  and  _331
REMARK  122  A    between atoms: _337  and  _338
REMARK  123  A    between atoms: _343  and  _345
REMARK  124  A    between atoms: _345  and  _346
REMARK  125  A    between atoms: _345  and  _348
REMARK  126  A    between atoms: _348  and  _349
REMARK  127  A    between atoms: _352  and  _354
REMARK  128  A    between atoms: _354  and  _355
REMARK  129  A    between atoms: _354  and  _357
REMARK  130  A    between atoms: _357  and  _358
REMARK  131  A    between atoms: _361  and  _363
REMARK  132  A    between atoms: _363  and  _364
REMARK  133  A    between atoms: _363  and  _366
REMARK  134  A    between atoms: _368  and  _370
REMARK  135  A    between atoms: _370  and  _371
REMARK  136  A    between atoms: _370  and  _373
REMARK  137  A    between atoms: _376  and  _378
REMARK  138  A    between atoms: _378  and  _379
REMARK  139  A    between atoms: _378  and  _381
REMARK  140  A    between atoms: _381  and  _382
REMARK  141  A    between atoms: _392  and  _394
REMARK  142  A    between atoms: _394  and  _395
REMARK  143  A    between atoms: _394  and  _397
REMARK  144  A    between atoms: _397  and  _398
REMARK  145  A    between atoms: _403  and  _405
REMARK  146  A    between atoms: _405  and  _406
REMARK  147  A    between atoms: _405  and  _408
REMARK  148  A    between atoms: _408  and  _409
REMARK  149  A    between atoms: _409  and  _410
REMARK  150  A    between atoms: _410  and  _411
REMARK                            x       y       z     vdW  Elec       q    Type
REMARK                         _______ _______ _______ _____ _____    ______ ____
ROOT
ATOM      1  CG  TRP A   1       5.737  -0.043  11.888  0.00  0.00    -0.002 A 
ATOM      2  CD2 TRP A   1       4.401  -0.570  11.879  0.00  0.00    +0.013 A 
ATOM      3  CE3 TRP A   1       3.848  -1.827  12.165  0.00  0.00    +0.001 A 
ATOM      4  CZ3 TRP A   1       2.466  -1.995  12.046  0.00  0.00    +0.000 A 
ATOM      5  CH2 TRP A   1       1.638  -0.929  11.646  0.00  0.00    +0.001 A 
ATOM      6  CZ2 TRP A   1       2.157   0.310  11.361  0.00  0.00    +0.017 A 
ATOM      7  CE2 TRP A   1       3.543   0.477  11.480  0.00  0.00    +0.056 A 
ATOM      8  NE1 TRP A   1       4.321   1.583  11.260  0.00  0.00    -0.352 N 
ATOM      9  HE1 TRP A   1       3.973   2.515  10.956  0.00  0.00    +0.166 HD
ATOM     10  CD1 TRP A   1       5.635   1.263  11.506  0.00  0.00    +0.068 A 
ENDROOT
BRANCH   1  11
ATOM     11  CB  TRP A   1       7.000  -0.789  12.230  0.00  0.00    +0.053 C 
BRANCH  11  12
ATOM     12  CA  TRP A   1       7.662  -1.506  11.046  0.00  0.00    +0.137 C 
BRANCH  12  13
ATOM     13  N   TRP A   1       8.282  -0.560  10.128  0.00  0.00    -0.239 NA
ATOM     14  H   TRP A   1       8.130   0.462  10.249  0.00  0.00    +0.142 HD
ENDBRANCH  12  13
BRANCH  12  15
ATOM     15  C   TRP A   1       6.631  -2.369  10.333  0.00  0.00    +0.224 C 
ATOM     16  O   TRP A   1       6.058  -1.965   9.319  0.00  0.00    -0.287 OA
ENDBRANCH  12  15
ENDBRANCH  11  12
ENDBRANCH   1  11
TORSDOF 4
REMARK  Name = ../refined-set-2016/3ibi/3ibi_pocket.pdb
REMARK  150 active torsions:
REMARK  status: ('A' for Active; 'I' for Inactive)
REMARK    1  A    between atoms: _1  and  _3
REMARK    2  A    between atoms: _3  and  _4
REMARK    3  A    between atoms: _3  and  _6
REMARK    4  A    between atoms: _6  and  _7
REMARK    5  A    between atoms: _17  and  _19
REMARK    6  A    between atoms: _19  and  _20
REMARK    7  A    between atoms: _19  and  _22
REMARK    8  A    between atoms: _22  and  _23
REMARK    9  A    between atoms: _28  and  _29
REMARK   10  A    between atoms: _31  and  _33
REMARK   11  A    between atoms: _33  and  _34
REMARK   12  A    between atoms: _33  and  _36
REMARK   13  A    between atoms: _36  and  _37
REMARK   14  A    between atoms: _40  and  _41
REMARK   15  A    between atoms: _46  and  _48
REMARK   16  A    between atoms: _48  and  _49
REMARK   17  A    between atoms: _48  and  _51
REMARK   18  A    between atoms: _51  and  _52
REMARK   19  A    between atoms: _57  and  _59
REMARK   20  A    between atoms: _59  and  _60
REMARK   21  A    between atoms: _63  and  _65
REMARK   22  A    between atoms: _65  and  _66
REMARK   23  A    between atoms: _65  and  _68
REMARK   24  A    between atoms: _68  and  _69
REMARK   25  A    between atoms: _74  and  _76
REMARK   26  A    between atoms: _76  and  _77
REMARK   27  A    between atoms: _76  and  _79
REMARK   28  A    between atoms: _79  and  _80
REMARK   29  A    between atoms: _83  and  _85
REMARK   30  A    between atoms: _85  and  _86
REMARK   31  A    between atoms: _85  and  _88
REMARK   32  A    between atoms: _88  and  _89
REMARK   33  A    between atoms: _89  and  _90
REMARK   34  A    between atoms: _95  and  _97
REMARK   35  A    between atoms: _97  and  _98
REMARK   36  A    between atoms: _97  and  _100
REMARK   37  A    between atoms: _100  and  _101
REMARK   38  A    between atoms: _107  and  _109
REMARK   39  A    between atoms: _120  and  _123
REMARK   40  A    between atoms: _123  and  _124
REMARK   41  A    between atoms: _132  and  _133
REMARK   42  A    between atoms: _141  and  _143
REMARK   43  A    between atoms: _143  and  _144
REMARK   44  A    between atoms: _143  and  _146
REMARK   45  A    between atoms: _146  and  _147
REMARK   46  A    between atoms: _147  and  _148
REMARK   47  A    between atoms: _151  and  _153
REMARK   48  A    between atoms: _153  and  _154
REMARK   49  A    between atoms: _153  and  _156
REMARK   50  A    between atoms: _156  and  _157
REMARK   51  A    between atoms: _162  and  _164
REMARK   52  A    between atoms: _164  and  _165
REMARK   53  A    between atoms: _164  and  _167
REMARK   54  A    between atoms: _167  and  _168
REMARK   55  A    between atoms: _168  and  _169
REMARK   56  A    between atoms: _172  and  _174
REMARK   57  A    between atoms: _174  and  _175
REMARK   58  A    between atoms: _174  and  _177
REMARK   59  A    between atoms: _177  and  _178
REMARK   60  A    between atoms: _181  and  _183
REMARK   61  A    between atoms: _183  and  _184
REMARK   62  A    between atoms: _183  and  _186
REMARK   63  A    between atoms: _186  and  _187
REMARK   64  A    between atoms: _188  and  ZN_420
REMARK   65  A    between atoms: _192  and  _194
REMARK   66  A    between atoms: _194  and  _195
REMARK   67  A    between atoms: _194  and  _197
REMARK   68  A    between atoms: _197  and  _198
REMARK   69  A    between atoms: _201  and  _203
REMARK   70  A    between atoms: _203  and  _204
REMARK   71  A    between atoms: _203  and  _206
REMARK   72  A    between atoms: _209  and  _211
REMARK   73  A    between atoms: _211  and  _212
REMARK   74  A    between atoms: _211  and  _214
REMARK   75  A    between atoms: _214  and  _215
REMARK   76  A    between atoms: _220  and  _222
REMARK   77  A    between atoms: _222  and  _223
REMARK   78  A    between atoms: _222  and  _225
REMARK   79  A    between atoms: _225  and  _226
REMARK   80  A    between atoms: _232  and  _234
REMARK   81  A    between atoms: _234  and  _235
REMARK   82  A    between atoms: _237  and  _239
REMARK   83  A    between atoms: _239  and  _240
REMARK   84  A    between atoms: _239  and  _242
REMARK   85  A    between atoms: _245  and  _247
REMARK   86  A    between atoms: _247  and  _248
REMARK   87  A    between atoms: _247  and  _250
REMARK   88  A    between atoms: _250  and  _251
REMARK   89  A    between atoms: _251  and  _252
REMARK   90  A    between atoms: _257  and  _259
REMARK   91  A    between atoms: _259  and  _260
REMARK   92  A    between atoms: _259  and  _262
REMARK   93  A    between atoms: _262  and  _263
REMARK   94  A    between atoms: _266  and  _268
REMARK   95  A    between atoms: _268  and  _269
REMARK   96  A    between atoms: _272  and  _274
REMARK   97  A    between atoms: _274  and  _275
REMARK   98  A    between atoms: _274  and  _277
REMARK   99  A    between atoms: _280  and  _282
REMARK  100  A    between atoms: _282  and  _283
REMARK  101  A    between atoms: _282  and  _285
REMARK  102  A    between atoms: _285  and  _286
REMARK  103  A    between atoms: _289  and  _291
REMARK  104  A    between atoms: _291  and  _292
REMARK  105  A    between atoms: _294  and  _296
REMARK  106  A    between atoms: _296  and  _297
REMARK  107  A    between atoms: _296  and  _299
REMARK  108  A    between atoms: _299  and  _300
REMARK  109  A    between atoms: _302  and  _304
REMARK  110  A    between atoms: _304  and  _305
REMARK  111  A    between atoms: _304  and  _307
REMARK  112  A    between atoms: _307  and  _308
REMARK  113  A    between atoms: _311  and  _313
REMARK  114  A    between atoms: _313  and  _314
REMARK  115  A    between atoms: _313  and  _316
REMARK  116  A    between atoms: _316  and  _317
REMARK  117  A    between atoms: _320  and  _322
REMARK  118  A    between atoms: _322  and  _323
REMARK  119  A    between atoms: _322  and  _325
REMARK  120  A    between atoms: _325  and  _326
REMARK  121  A    between atoms: _330  and  _331
REMARK  122  A    between atoms: _337  and  _338
REMARK  123  A    between atoms: _343  and  _345
REMARK  124  A    between atoms: _345  and  _346
REMARK  125  A    between atoms: _345  and  _348
REMARK  126  A    between atoms: _348  and  _349
REMARK  127  A    between atoms: _352  and  _354
REMARK  128  A    between atoms: _354  and  _355
REMARK  129  A    between atoms: _354  and  _357
REMARK  130  A    between atoms: _357  and  _358
REMARK  131  A    between atoms: _361  and  _363
REMARK  132  A    between atoms: _363  and  _364
REMARK  133  A    between atoms: _363  and  _366
REMARK  134  A    between atoms: _368  and  _370
REMARK  135  A    between atoms: _370  and  _371
REMARK  136  A    between atoms: _370  and  _373
REMARK  137  A    between atoms: _376  and  _378
REMARK  138  A    between atoms: _378  and  _379
REMARK  139  A    between atoms: _378  and  _381
REMARK  140  A    between atoms: _381  and  _382
REMARK  141  A    between atoms: _392  and  _394
REMARK  142  A    between atoms: _394  and  _395
REMARK  143  A    between atoms: _394  and  _397
REMARK  144  A    between atoms: _397  and  _398
REMARK  145  A    between atoms: _403  and  _405
REMARK  146  A    between atoms: _405  and  _406
REMARK  147  A    between atoms: _405  and  _408
REMARK  148  A    between atoms: _408  and  _409
REMARK  149  A    between atoms: _409  and  _410
REMARK  150  A    between atoms: _410  and  _411
REMARK                            x       y       z     vdW  Elec       q    Type
REMARK                         _______ _______ _______ _____ _____    ______ ____
ROOT
ATOM      1  CG  TYR A   1       1.950  -7.113  11.856  0.00  0.00    -0.020 A 
ATOM      2  CD2 TYR A   1       1.500  -7.062  13.177  0.00  0.00    -0.001 A 
ATOM      3  CE2 TYR A   1       0.667  -6.033  13.614  0.00  0.00    +0.036 A 
ATOM      4  CZ  TYR A   1       0.276  -5.047  12.723  0.00  0.00    +0.134 A 
ATOM      5  CE1 TYR A   1       0.709  -5.079  11.404  0.00  0.00    +0.036 A 
ATOM      6  CD1 TYR A   1       1.542  -6.108  10.981  0.00  0.00    -0.001 A 
ENDROOT
BRANCH   4   7
ATOM      7  OH  TYR A   1      -0.543  -4.027  13.153  0.00  0.00    -0.506 OA
ATOM      8  HH  TYR A   1      -0.726  -3.412  12.399  0.00  0.00    +0.292 HD
ENDBRANCH   4   7
BRANCH   1   9
ATOM      9  CB  TYR A   1       2.886  -8.209  11.400  0.00  0.00    +0.051 C 
BRANCH   9  10
ATOM     10  CA  TYR A   1       4.367  -7.865  11.587  0.00  0.00    +0.137 C 
BRANCH  10  11
ATOM     11  N   TYR A   1       4.747  -6.743  10.737  0.00  0.00    -0.239 NA
ATOM     12  H   TYR A   1       4.796  -6.880   9.707  0.00  0.00    +0.142 HD
ENDBRANCH  10  11
BRANCH  10  13
ATOM     13  C   TYR A   1       5.221  -9.091  11.285  0.00  0.00    +0.224 C 
ATOM     14  O   TYR A   1       4.826 -10.222  11.573  0.00  0.00    -0.287 OA
ENDBRANCH  10  13
ENDBRANCH   9  10
ENDBRANCH   1   9
TORSDOF 5
REMARK  Name = ../refined-set-2016/3ibi/3ibi_pocket.pdb
REMARK  150 active torsions:
REMARK  status: ('A' for Active; 'I' for Inactive)
REMARK    1  A    between atoms: _1  and  _3
REMARK    2  A    between atoms: _3  and  _4
REMARK    3  A    between atoms: _3  and  _6
REMARK    4  A    between atoms: _6  and  _7
REMARK    5  A    between atoms: _17  and  _19
REMARK    6  A    between atoms: _19  and  _20
REMARK    7  A    between atoms: _19  and  _22
REMARK    8  A    between atoms: _22  and  _23
REMARK    9  A    between atoms: _28  and  _29
REMARK   10  A    between atoms: _31  and  _33
REMARK   11  A    between atoms: _33  and  _34
REMARK   12  A    between atoms: _33  and  _36
REMARK   13  A    between atoms: _36  and  _37
REMARK   14  A    between atoms: _40  and  _41
REMARK   15  A    between atoms: _46  and  _48
REMARK   16  A    between atoms: _48  and  _49
REMARK   17  A    between atoms: _48  and  _51
REMARK   18  A    between atoms: _51  and  _52
REMARK   19  A    between atoms: _57  and  _59
REMARK   20  A    between atoms: _59  and  _60
REMARK   21  A    between atoms: _63  and  _65
REMARK   22  A    between atoms: _65  and  _66
REMARK   23  A    between atoms: _65  and  _68
REMARK   24  A    between atoms: _68  and  _69
REMARK   25  A    between atoms: _74  and  _76
REMARK   26  A    between atoms: _76  and  _77
REMARK   27  A    between atoms: _76  and  _79
REMARK   28  A    between atoms: _79  and  _80
REMARK   29  A    between atoms: _83  and  _85
REMARK   30  A    between atoms: _85  and  _86
REMARK   31  A    between atoms: _85  and  _88
REMARK   32  A    between atoms: _88  and  _89
REMARK   33  A    between atoms: _89  and  _90
REMARK   34  A    between atoms: _95  and  _97
REMARK   35  A    between atoms: _97  and  _98
REMARK   36  A    between atoms: _97  and  _100
REMARK   37  A    between atoms: _100  and  _101
REMARK   38  A    between atoms: _107  and  _109
REMARK   39  A    between atoms: _120  and  _123
REMARK   40  A    between atoms: _123  and  _124
REMARK   41  A    between atoms: _132  and  _133
REMARK   42  A    between atoms: _141  and  _143
REMARK   43  A    between atoms: _143  and  _144
REMARK   44  A    between atoms: _143  and  _146
REMARK   45  A    between atoms: _146  and  _147
REMARK   46  A    between atoms: _147  and  _148
REMARK   47  A    between atoms: _151  and  _153
REMARK   48  A    between atoms: _153  and  _154
REMARK   49  A    between atoms: _153  and  _156
REMARK   50  A    between atoms: _156  and  _157
REMARK   51  A    between atoms: _162  and  _164
REMARK   52  A    between atoms: _164  and  _165
REMARK   53  A    between atoms: _164  and  _167
REMARK   54  A    between atoms: _167  and  _168
REMARK   55  A    between atoms: _168  and  _169
REMARK   56  A    between atoms: _172  and  _174
REMARK   57  A    between atoms: _174  and  _175
REMARK   58  A    between atoms: _174  and  _177
REMARK   59  A    between atoms: _177  and  _178
REMARK   60  A    between atoms: _181  and  _183
REMARK   61  A    between atoms: _183  and  _184
REMARK   62  A    between atoms: _183  and  _186
REMARK   63  A    between atoms: _186  and  _187
REMARK   64  A    between atoms: _188  and  ZN_420
REMARK   65  A    between atoms: _192  and  _194
REMARK   66  A    between atoms: _194  and  _195
REMARK   67  A    between atoms: _194  and  _197
REMARK   68  A    between atoms: _197  and  _198
REMARK   69  A    between atoms: _201  and  _203
REMARK   70  A    between atoms: _203  and  _204
REMARK   71  A    between atoms: _203  and  _206
REMARK   72  A    between atoms: _209  and  _211
REMARK   73  A    between atoms: _211  and  _212
REMARK   74  A    between atoms: _211  and  _214
REMARK   75  A    between atoms: _214  and  _215
REMARK   76  A    between atoms: _220  and  _222
REMARK   77  A    between atoms: _222  and  _223
REMARK   78  A    between atoms: _222  and  _225
REMARK   79  A    between atoms: _225  and  _226
REMARK   80  A    between atoms: _232  and  _234
REMARK   81  A    between atoms: _234  and  _235
REMARK   82  A    between atoms: _237  and  _239
REMARK   83  A    between atoms: _239  and  _240
REMARK   84  A    between atoms: _239  and  _242
REMARK   85  A    between atoms: _245  and  _247
REMARK   86  A    between atoms: _247  and  _248
REMARK   87  A    between atoms: _247  and  _250
REMARK   88  A    between atoms: _250  and  _251
REMARK   89  A    between atoms: _251  and  _252
REMARK   90  A    between atoms: _257  and  _259
REMARK   91  A    between atoms: _259  and  _260
REMARK   92  A    between atoms: _259  and  _262
REMARK   93  A    between atoms: _262  and  _263
REMARK   94  A    between atoms: _266  and  _268
REMARK   95  A    between atoms: _268  and  _269
REMARK   96  A    between atoms: _272  and  _274
REMARK   97  A    between atoms: _274  and  _275
REMARK   98  A    between atoms: _274  and  _277
REMARK   99  A    between atoms: _280  and  _282
REMARK  100  A    between atoms: _282  and  _283
REMARK  101  A    between atoms: _282  and  _285
REMARK  102  A    between atoms: _285  and  _286
REMARK  103  A    between atoms: _289  and  _291
REMARK  104  A    between atoms: _291  and  _292
REMARK  105  A    between atoms: _294  and  _296
REMARK  106  A    between atoms: _296  and  _297
REMARK  107  A    between atoms: _296  and  _299
REMARK  108  A    between atoms: _299  and  _300
REMARK  109  A    between atoms: _302  and  _304
REMARK  110  A    between atoms: _304  and  _305
REMARK  111  A    between atoms: _304  and  _307
REMARK  112  A    between atoms: _307  and  _308
REMARK  113  A    between atoms: _311  and  _313
REMARK  114  A    between atoms: _313  and  _314
REMARK  115  A    between atoms: _313  and  _316
REMARK  116  A    between atoms: _316  and  _317
REMARK  117  A    between atoms: _320  and  _322
REMARK  118  A    between atoms: _322  and  _323
REMARK  119  A    between atoms: _322  and  _325
REMARK  120  A    between atoms: _325  and  _326
REMARK  121  A    between atoms: _330  and  _331
REMARK  122  A    between atoms: _337  and  _338
REMARK  123  A    between atoms: _343  and  _345
REMARK  124  A    between atoms: _345  and  _346
REMARK  125  A    between atoms: _345  and  _348
REMARK  126  A    between atoms: _348  and  _349
REMARK  127  A    between atoms: _352  and  _354
REMARK  128  A    between atoms: _354  and  _355
REMARK  129  A    between atoms: _354  and  _357
REMARK  130  A    between atoms: _357  and  _358
REMARK  131  A    between atoms: _361  and  _363
REMARK  132  A    between atoms: _363  and  _364
REMARK  133  A    between atoms: _363  and  _366
REMARK  134  A    between atoms: _368  and  _370
REMARK  135  A    between atoms: _370  and  _371
REMARK  136  A    between atoms: _370  and  _373
REMARK  137  A    between atoms: _376  and  _378
REMARK  138  A    between atoms: _378  and  _379
REMARK  139  A    between atoms: _378  and  _381
REMARK  140  A    between atoms: _381  and  _382
REMARK  141  A    between atoms: _392  and  _394
REMARK  142  A    between atoms: _394  and  _395
REMARK  143  A    between atoms: _394  and  _397
REMARK  144  A    between atoms: _397  and  _398
REMARK  145  A    between atoms: _403  and  _405
REMARK  146  A    between atoms: _405  and  _406
REMARK  147  A    between atoms: _405  and  _408
REMARK  148  A    between atoms: _408  and  _409
REMARK  149  A    between atoms: _409  and  _410
REMARK  150  A    between atoms: _410  and  _411
REMARK                            x       y       z     vdW  Elec       q    Type
REMARK                         _______ _______ _______ _____ _____    ______ ____
ROOT
ATOM      1  C   SER A   1      -2.212  -3.038  23.034  0.00  0.00    +0.244 C 
ATOM      2  N   PRO A   2      -2.837  -4.195  22.779  0.00  0.00    -0.273 N 
ATOM      3  CA  PRO A   2      -4.005  -4.709  23.498  0.00  0.00    +0.140 C 
ATOM      4  CB  PRO A   2      -4.593  -5.703  22.510  0.00  0.00    +0.030 C 
ATOM      5  CG  PRO A   2      -3.336  -6.335  21.949  0.00  0.00    +0.024 C 
ATOM      6  CD  PRO A   2      -2.442  -5.117  21.697  0.00  0.00    +0.094 C 
ATOM      7  O   SER A   1      -1.242  -2.665  22.380  0.00  0.00    -0.273 OA
ENDROOT
BRANCH   3   8
ATOM      8  C   PRO A   2      -3.590  -5.387  24.804  0.00  0.00    +0.227 C 
ATOM      9  O   PRO A   2      -2.407  -5.413  25.157  0.00  0.00    -0.286 OA
ENDBRANCH   3   8
BRANCH   1  10
ATOM     10  CA  SER A   1      -2.758  -2.179  24.165  0.00  0.00    +0.175 C 
BRANCH  10  11
ATOM     11  N   SER A   1      -1.683  -1.304  24.611  0.00  0.00    -0.236 NA
ATOM     12  H   SER A   1      -1.184  -0.733  23.899  0.00  0.00    +0.142 HD
ENDBRANCH  10  11
BRANCH  10  13
ATOM     13  CB  SER A   1      -3.940  -1.355  23.648  0.00  0.00    +0.163 C 
BRANCH  13  14
ATOM     14  OG  SER A   1      -4.577  -0.644  24.695  0.00  0.00    -0.380 OA
ATOM     15  H   SER A   1      -4.913  -1.285  25.370  0.00  0.00    +0.211 HD
ENDBRANCH  13  14
ENDBRANCH  10  13
ENDBRANCH   1  10
TORSDOF 5
REMARK  Name = ../refined-set-2016/3ibi/3ibi_pocket.pdb
REMARK  150 active torsions:
REMARK  status: ('A' for Active; 'I' for Inactive)
REMARK    1  A    between atoms: _1  and  _3
REMARK    2  A    between atoms: _3  and  _4
REMARK    3  A    between atoms: _3  and  _6
REMARK    4  A    between atoms: _6  and  _7
REMARK    5  A    between atoms: _17  and  _19
REMARK    6  A    between atoms: _19  and  _20
REMARK    7  A    between atoms: _19  and  _22
REMARK    8  A    between atoms: _22  and  _23
REMARK    9  A    between atoms: _28  and  _29
REMARK   10  A    between atoms: _31  and  _33
REMARK   11  A    between atoms: _33  and  _34
REMARK   12  A    between atoms: _33  and  _36
REMARK   13  A    between atoms: _36  and  _37
REMARK   14  A    between atoms: _40  and  _41
REMARK   15  A    between atoms: _46  and  _48
REMARK   16  A    between atoms: _48  and  _49
REMARK   17  A    between atoms: _48  and  _51
REMARK   18  A    between atoms: _51  and  _52
REMARK   19  A    between atoms: _57  and  _59
REMARK   20  A    between atoms: _59  and  _60
REMARK   21  A    between atoms: _63  and  _65
REMARK   22  A    between atoms: _65  and  _66
REMARK   23  A    between atoms: _65  and  _68
REMARK   24  A    between atoms: _68  and  _69
REMARK   25  A    between atoms: _74  and  _76
REMARK   26  A    between atoms: _76  and  _77
REMARK   27  A    between atoms: _76  and  _79
REMARK   28  A    between atoms: _79  and  _80
REMARK   29  A    between atoms: _83  and  _85
REMARK   30  A    between atoms: _85  and  _86
REMARK   31  A    between atoms: _85  and  _88
REMARK   32  A    between atoms: _88  and  _89
REMARK   33  A    between atoms: _89  and  _90
REMARK   34  A    between atoms: _95  and  _97
REMARK   35  A    between atoms: _97  and  _98
REMARK   36  A    between atoms: _97  and  _100
REMARK   37  A    between atoms: _100  and  _101
REMARK   38  A    between atoms: _107  and  _109
REMARK   39  A    between atoms: _120  and  _123
REMARK   40  A    between atoms: _123  and  _124
REMARK   41  A    between atoms: _132  and  _133
REMARK   42  A    between atoms: _141  and  _143
REMARK   43  A    between atoms: _143  and  _144
REMARK   44  A    between atoms: _143  and  _146
REMARK   45  A    between atoms: _146  and  _147
REMARK   46  A    between atoms: _147  and  _148
REMARK   47  A    between atoms: _151  and  _153
REMARK   48  A    between atoms: _153  and  _154
REMARK   49  A    between atoms: _153  and  _156
REMARK   50  A    between atoms: _156  and  _157
REMARK   51  A    between atoms: _162  and  _164
REMARK   52  A    between atoms: _164  and  _165
REMARK   53  A    between atoms: _164  and  _167
REMARK   54  A    between atoms: _167  and  _168
REMARK   55  A    between atoms: _168  and  _169
REMARK   56  A    between atoms: _172  and  _174
REMARK   57  A    between atoms: _174  and  _175
REMARK   58  A    between atoms: _174  and  _177
REMARK   59  A    between atoms: _177  and  _178
REMARK   60  A    between atoms: _181  and  _183
REMARK   61  A    between atoms: _183  and  _184
REMARK   62  A    between atoms: _183  and  _186
REMARK   63  A    between atoms: _186  and  _187
REMARK   64  A    between atoms: _188  and  ZN_420
REMARK   65  A    between atoms: _192  and  _194
REMARK   66  A    between atoms: _194  and  _195
REMARK   67  A    between atoms: _194  and  _197
REMARK   68  A    between atoms: _197  and  _198
REMARK   69  A    between atoms: _201  and  _203
REMARK   70  A    between atoms: _203  and  _204
REMARK   71  A    between atoms: _203  and  _206
REMARK   72  A    between atoms: _209  and  _211
REMARK   73  A    between atoms: _211  and  _212
REMARK   74  A    between atoms: _211  and  _214
REMARK   75  A    between atoms: _214  and  _215
REMARK   76  A    between atoms: _220  and  _222
REMARK   77  A    between atoms: _222  and  _223
REMARK   78  A    between atoms: _222  and  _225
REMARK   79  A    between atoms: _225  and  _226
REMARK   80  A    between atoms: _232  and  _234
REMARK   81  A    between atoms: _234  and  _235
REMARK   82  A    between atoms: _237  and  _239
REMARK   83  A    between atoms: _239  and  _240
REMARK   84  A    between atoms: _239  and  _242
REMARK   85  A    between atoms: _245  and  _247
REMARK   86  A    between atoms: _247  and  _248
REMARK   87  A    between atoms: _247  and  _250
REMARK   88  A    between atoms: _250  and  _251
REMARK   89  A    between atoms: _251  and  _252
REMARK   90  A    between atoms: _257  and  _259
REMARK   91  A    between atoms: _259  and  _260
REMARK   92  A    between atoms: _259  and  _262
REMARK   93  A    between atoms: _262  and  _263
REMARK   94  A    between atoms: _266  and  _268
REMARK   95  A    between atoms: _268  and  _269
REMARK   96  A    between atoms: _272  and  _274
REMARK   97  A    between atoms: _274  and  _275
REMARK   98  A    between atoms: _274  and  _277
REMARK   99  A    between atoms: _280  and  _282
REMARK  100  A    between atoms: _282  and  _283
REMARK  101  A    between atoms: _282  and  _285
REMARK  102  A    between atoms: _285  and  _286
REMARK  103  A    between atoms: _289  and  _291
REMARK  104  A    between atoms: _291  and  _292
REMARK  105  A    between atoms: _294  and  _296
REMARK  106  A    between atoms: _296  and  _297
REMARK  107  A    between atoms: _296  and  _299
REMARK  108  A    between atoms: _299  and  _300
REMARK  109  A    between atoms: _302  and  _304
REMARK  110  A    between atoms: _304  and  _305
REMARK  111  A    between atoms: _304  and  _307
REMARK  112  A    between atoms: _307  and  _308
REMARK  113  A    between atoms: _311  and  _313
REMARK  114  A    between atoms: _313  and  _314
REMARK  115  A    between atoms: _313  and  _316
REMARK  116  A    between atoms: _316  and  _317
REMARK  117  A    between atoms: _320  and  _322
REMARK  118  A    between atoms: _322  and  _323
REMARK  119  A    between atoms: _322  and  _325
REMARK  120  A    between atoms: _325  and  _326
REMARK  121  A    between atoms: _330  and  _331
REMARK  122  A    between atoms: _337  and  _338
REMARK  123  A    between atoms: _343  and  _345
REMARK  124  A    between atoms: _345  and  _346
REMARK  125  A    between atoms: _345  and  _348
REMARK  126  A    between atoms: _348  and  _349
REMARK  127  A    between atoms: _352  and  _354
REMARK  128  A    between atoms: _354  and  _355
REMARK  129  A    between atoms: _354  and  _357
REMARK  130  A    between atoms: _357  and  _358
REMARK  131  A    between atoms: _361  and  _363
REMARK  132  A    between atoms: _363  and  _364
REMARK  133  A    between atoms: _363  and  _366
REMARK  134  A    between atoms: _368  and  _370
REMARK  135  A    between atoms: _370  and  _371
REMARK  136  A    between atoms: _370  and  _373
REMARK  137  A    between atoms: _376  and  _378
REMARK  138  A    between atoms: _378  and  _379
REMARK  139  A    between atoms: _378  and  _381
REMARK  140  A    between atoms: _381  and  _382
REMARK  141  A    between atoms: _392  and  _394
REMARK  142  A    between atoms: _394  and  _395
REMARK  143  A    between atoms: _394  and  _397
REMARK  144  A    between atoms: _397  and  _398
REMARK  145  A    between atoms: _403  and  _405
REMARK  146  A    between atoms: _405  and  _406
REMARK  147  A    between atoms: _405  and  _408
REMARK  148  A    between atoms: _408  and  _409
REMARK  149  A    between atoms: _409  and  _410
REMARK  150  A    between atoms: _410  and  _411
REMARK                            x       y       z     vdW  Elec       q    Type
REMARK                         _______ _______ _______ _____ _____    ______ ____
ROOT
ATOM      1  CB  ASN A   1      -2.288   1.768   5.224  0.00  0.00    +0.110 C 
ENDROOT
BRANCH   1   2
ATOM      2  CG  ASN A   1      -2.710   0.911   6.405  0.00  0.00    +0.221 C 
ATOM      3  ND2 ASN A   1      -3.456   1.506   7.329  0.00  0.00    -0.329 N 
ATOM      4 HD21 ASN A   1      -3.763   0.976   8.170  0.00  0.00    +0.145 HD
ATOM      5 HD22 ASN A   1      -3.733   2.502   7.212  0.00  0.00    +0.145 HD
ATOM      6  OD1 ASN A   1      -2.355  -0.265   6.496  0.00  0.00    -0.275 OA
ENDBRANCH   1   2
BRANCH   1   7
ATOM      7  CA  ASN A   1      -1.962   0.940   3.973  0.00  0.00    +0.142 C 
BRANCH   7   8
ATOM      8  N   ASN A   1      -3.129   0.175   3.547  0.00  0.00    -0.239 NA
ATOM      9  H   ASN A   1      -3.747  -0.264   4.259  0.00  0.00    +0.142 HD
ENDBRANCH   7   8
BRANCH   7  10
ATOM     10  C   ASN A   1      -0.733   0.082   4.236  0.00  0.00    +0.225 C 
ATOM     11  O   ASN A   1       0.225   0.530   4.864  0.00  0.00    -0.287 OA
ENDBRANCH   7  10
ENDBRANCH   1   7
TORSDOF 4
REMARK  Name = ../refined-set-2016/3ibi/3ibi_pocket.pdb
REMARK  150 active torsions:
REMARK  status: ('A' for Active; 'I' for Inactive)
REMARK    1  A    between atoms: _1  and  _3
REMARK    2  A    between atoms: _3  and  _4
REMARK    3  A    between atoms: _3  and  _6
REMARK    4  A    between atoms: _6  and  _7
REMARK    5  A    between atoms: _17  and  _19
REMARK    6  A    between atoms: _19  and  _20
REMARK    7  A    between atoms: _19  and  _22
REMARK    8  A    between atoms: _22  and  _23
REMARK    9  A    between atoms: _28  and  _29
REMARK   10  A    between atoms: _31  and  _33
REMARK   11  A    between atoms: _33  and  _34
REMARK   12  A    between atoms: _33  and  _36
REMARK   13  A    between atoms: _36  and  _37
REMARK   14  A    between atoms: _40  and  _41
REMARK   15  A    between atoms: _46  and  _48
REMARK   16  A    between atoms: _48  and  _49
REMARK   17  A    between atoms: _48  and  _51
REMARK   18  A    between atoms: _51  and  _52
REMARK   19  A    between atoms: _57  and  _59
REMARK   20  A    between atoms: _59  and  _60
REMARK   21  A    between atoms: _63  and  _65
REMARK   22  A    between atoms: _65  and  _66
REMARK   23  A    between atoms: _65  and  _68
REMARK   24  A    between atoms: _68  and  _69
REMARK   25  A    between atoms: _74  and  _76
REMARK   26  A    between atoms: _76  and  _77
REMARK   27  A    between atoms: _76  and  _79
REMARK   28  A    between atoms: _79  and  _80
REMARK   29  A    between atoms: _83  and  _85
REMARK   30  A    between atoms: _85  and  _86
REMARK   31  A    between atoms: _85  and  _88
REMARK   32  A    between atoms: _88  and  _89
REMARK   33  A    between atoms: _89  and  _90
REMARK   34  A    between atoms: _95  and  _97
REMARK   35  A    between atoms: _97  and  _98
REMARK   36  A    between atoms: _97  and  _100
REMARK   37  A    between atoms: _100  and  _101
REMARK   38  A    between atoms: _107  and  _109
REMARK   39  A    between atoms: _120  and  _123
REMARK   40  A    between atoms: _123  and  _124
REMARK   41  A    between atoms: _132  and  _133
REMARK   42  A    between atoms: _141  and  _143
REMARK   43  A    between atoms: _143  and  _144
REMARK   44  A    between atoms: _143  and  _146
REMARK   45  A    between atoms: _146  and  _147
REMARK   46  A    between atoms: _147  and  _148
REMARK   47  A    between atoms: _151  and  _153
REMARK   48  A    between atoms: _153  and  _154
REMARK   49  A    between atoms: _153  and  _156
REMARK   50  A    between atoms: _156  and  _157
REMARK   51  A    between atoms: _162  and  _164
REMARK   52  A    between atoms: _164  and  _165
REMARK   53  A    between atoms: _164  and  _167
REMARK   54  A    between atoms: _167  and  _168
REMARK   55  A    between atoms: _168  and  _169
REMARK   56  A    between atoms: _172  and  _174
REMARK   57  A    between atoms: _174  and  _175
REMARK   58  A    between atoms: _174  and  _177
REMARK   59  A    between atoms: _177  and  _178
REMARK   60  A    between atoms: _181  and  _183
REMARK   61  A    between atoms: _183  and  _184
REMARK   62  A    between atoms: _183  and  _186
REMARK   63  A    between atoms: _186  and  _187
REMARK   64  A    between atoms: _188  and  ZN_420
REMARK   65  A    between atoms: _192  and  _194
REMARK   66  A    between atoms: _194  and  _195
REMARK   67  A    between atoms: _194  and  _197
REMARK   68  A    between atoms: _197  and  _198
REMARK   69  A    between atoms: _201  and  _203
REMARK   70  A    between atoms: _203  and  _204
REMARK   71  A    between atoms: _203  and  _206
REMARK   72  A    between atoms: _209  and  _211
REMARK   73  A    between atoms: _211  and  _212
REMARK   74  A    between atoms: _211  and  _214
REMARK   75  A    between atoms: _214  and  _215
REMARK   76  A    between atoms: _220  and  _222
REMARK   77  A    between atoms: _222  and  _223
REMARK   78  A    between atoms: _222  and  _225
REMARK   79  A    between atoms: _225  and  _226
REMARK   80  A    between atoms: _232  and  _234
REMARK   81  A    between atoms: _234  and  _235
REMARK   82  A    between atoms: _237  and  _239
REMARK   83  A    between atoms: _239  and  _240
REMARK   84  A    between atoms: _239  and  _242
REMARK   85  A    between atoms: _245  and  _247
REMARK   86  A    between atoms: _247  and  _248
REMARK   87  A    between atoms: _247  and  _250
REMARK   88  A    between atoms: _250  and  _251
REMARK   89  A    between atoms: _251  and  _252
REMARK   90  A    between atoms: _257  and  _259
REMARK   91  A    between atoms: _259  and  _260
REMARK   92  A    between atoms: _259  and  _262
REMARK   93  A    between atoms: _262  and  _263
REMARK   94  A    between atoms: _266  and  _268
REMARK   95  A    between atoms: _268  and  _269
REMARK   96  A    between atoms: _272  and  _274
REMARK   97  A    between atoms: _274  and  _275
REMARK   98  A    between atoms: _274  and  _277
REMARK   99  A    between atoms: _280  and  _282
REMARK  100  A    between atoms: _282  and  _283
REMARK  101  A    between atoms: _282  and  _285
REMARK  102  A    between atoms: _285  and  _286
REMARK  103  A    between atoms: _289  and  _291
REMARK  104  A    between atoms: _291  and  _292
REMARK  105  A    between atoms: _294  and  _296
REMARK  106  A    between atoms: _296  and  _297
REMARK  107  A    between atoms: _296  and  _299
REMARK  108  A    between atoms: _299  and  _300
REMARK  109  A    between atoms: _302  and  _304
REMARK  110  A    between atoms: _304  and  _305
REMARK  111  A    between atoms: _304  and  _307
REMARK  112  A    between atoms: _307  and  _308
REMARK  113  A    between atoms: _311  and  _313
REMARK  114  A    between atoms: _313  and  _314
REMARK  115  A    between atoms: _313  and  _316
REMARK  116  A    between atoms: _316  and  _317
REMARK  117  A    between atoms: _320  and  _322
REMARK  118  A    between atoms: _322  and  _323
REMARK  119  A    between atoms: _322  and  _325
REMARK  120  A    between atoms: _325  and  _326
REMARK  121  A    between atoms: _330  and  _331
REMARK  122  A    between atoms: _337  and  _338
REMARK  123  A    between atoms: _343  and  _345
REMARK  124  A    between atoms: _345  and  _346
REMARK  125  A    between atoms: _345  and  _348
REMARK  126  A    between atoms: _348  and  _349
REMARK  127  A    between atoms: _352  and  _354
REMARK  128  A    between atoms: _354  and  _355
REMARK  129  A    between atoms: _354  and  _357
REMARK  130  A    between atoms: _357  and  _358
REMARK  131  A    between atoms: _361  and  _363
REMARK  132  A    between atoms: _363  and  _364
REMARK  133  A    between atoms: _363  and  _366
REMARK  134  A    between atoms: _368  and  _370
REMARK  135  A    between atoms: _370  and  _371
REMARK  136  A    between atoms: _370  and  _373
REMARK  137  A    between atoms: _376  and  _378
REMARK  138  A    between atoms: _378  and  _379
REMARK  139  A    between atoms: _378  and  _381
REMARK  140  A    between atoms: _381  and  _382
REMARK  141  A    between atoms: _392  and  _394
REMARK  142  A    between atoms: _394  and  _395
REMARK  143  A    between atoms: _394  and  _397
REMARK  144  A    between atoms: _397  and  _398
REMARK  145  A    between atoms: _403  and  _405
REMARK  146  A    between atoms: _405  and  _406
REMARK  147  A    between atoms: _405  and  _408
REMARK  148  A    between atoms: _408  and  _409
REMARK  149  A    between atoms: _409  and  _410
REMARK  150  A    between atoms: _410  and  _411
REMARK                            x       y       z     vdW  Elec       q    Type
REMARK                         _______ _______ _______ _____ _____    ______ ____
ROOT
ATOM      1  CA  ALA A   1      -4.404  -3.508   7.107  0.00  0.00    +0.133 C 
ATOM      2  CB  ALA A   1      -5.016  -3.302   8.502  0.00  0.00    +0.027 C 
ENDROOT
BRANCH   1   3
ATOM      3  N   ALA A   1      -3.023  -3.056   7.084  0.00  0.00    -0.239 NA
ATOM      4  H   ALA A   1      -2.809  -2.157   6.607  0.00  0.00    +0.142 HD
ENDBRANCH   1   3
BRANCH   1   5
ATOM      5  C   ALA A   1      -5.119  -2.639   6.089  0.00  0.00    +0.224 C 
ATOM      6  O   ALA A   1      -4.470  -1.959   5.300  0.00  0.00    -0.287 OA
ENDBRANCH   1   5
TORSDOF 2
REMARK  Name = ../refined-set-2016/3ibi/3ibi_pocket.pdb
REMARK  150 active torsions:
REMARK  status: ('A' for Active; 'I' for Inactive)
REMARK    1  A    between atoms: _1  and  _3
REMARK    2  A    between atoms: _3  and  _4
REMARK    3  A    between atoms: _3  and  _6
REMARK    4  A    between atoms: _6  and  _7
REMARK    5  A    between atoms: _17  and  _19
REMARK    6  A    between atoms: _19  and  _20
REMARK    7  A    between atoms: _19  and  _22
REMARK    8  A    between atoms: _22  and  _23
REMARK    9  A    between atoms: _28  and  _29
REMARK   10  A    between atoms: _31  and  _33
REMARK   11  A    between atoms: _33  and  _34
REMARK   12  A    between atoms: _33  and  _36
REMARK   13  A    between atoms: _36  and  _37
REMARK   14  A    between atoms: _40  and  _41
REMARK   15  A    between atoms: _46  and  _48
REMARK   16  A    between atoms: _48  and  _49
REMARK   17  A    between atoms: _48  and  _51
REMARK   18  A    between atoms: _51  and  _52
REMARK   19  A    between atoms: _57  and  _59
REMARK   20  A    between atoms: _59  and  _60
REMARK   21  A    between atoms: _63  and  _65
REMARK   22  A    between atoms: _65  and  _66
REMARK   23  A    between atoms: _65  and  _68
REMARK   24  A    between atoms: _68  and  _69
REMARK   25  A    between atoms: _74  and  _76
REMARK   26  A    between atoms: _76  and  _77
REMARK   27  A    between atoms: _76  and  _79
REMARK   28  A    between atoms: _79  and  _80
REMARK   29  A    between atoms: _83  and  _85
REMARK   30  A    between atoms: _85  and  _86
REMARK   31  A    between atoms: _85  and  _88
REMARK   32  A    between atoms: _88  and  _89
REMARK   33  A    between atoms: _89  and  _90
REMARK   34  A    between atoms: _95  and  _97
REMARK   35  A    between atoms: _97  and  _98
REMARK   36  A    between atoms: _97  and  _100
REMARK   37  A    between atoms: _100  and  _101
REMARK   38  A    between atoms: _107  and  _109
REMARK   39  A    between atoms: _120  and  _123
REMARK   40  A    between atoms: _123  and  _124
REMARK   41  A    between atoms: _132  and  _133
REMARK   42  A    between atoms: _141  and  _143
REMARK   43  A    between atoms: _143  and  _144
REMARK   44  A    between atoms: _143  and  _146
REMARK   45  A    between atoms: _146  and  _147
REMARK   46  A    between atoms: _147  and  _148
REMARK   47  A    between atoms: _151  and  _153
REMARK   48  A    between atoms: _153  and  _154
REMARK   49  A    between atoms: _153  and  _156
REMARK   50  A    between atoms: _156  and  _157
REMARK   51  A    between atoms: _162  and  _164
REMARK   52  A    between atoms: _164  and  _165
REMARK   53  A    between atoms: _164  and  _167
REMARK   54  A    between atoms: _167  and  _168
REMARK   55  A    between atoms: _168  and  _169
REMARK   56  A    between atoms: _172  and  _174
REMARK   57  A    between atoms: _174  and  _175
REMARK   58  A    between atoms: _174  and  _177
REMARK   59  A    between atoms: _177  and  _178
REMARK   60  A    between atoms: _181  and  _183
REMARK   61  A    between atoms: _183  and  _184
REMARK   62  A    between atoms: _183  and  _186
REMARK   63  A    between atoms: _186  and  _187
REMARK   64  A    between atoms: _188  and  ZN_420
REMARK   65  A    between atoms: _192  and  _194
REMARK   66  A    between atoms: _194  and  _195
REMARK   67  A    between atoms: _194  and  _197
REMARK   68  A    between atoms: _197  and  _198
REMARK   69  A    between atoms: _201  and  _203
REMARK   70  A    between atoms: _203  and  _204
REMARK   71  A    between atoms: _203  and  _206
REMARK   72  A    between atoms: _209  and  _211
REMARK   73  A    between atoms: _211  and  _212
REMARK   74  A    between atoms: _211  and  _214
REMARK   75  A    between atoms: _214  and  _215
REMARK   76  A    between atoms: _220  and  _222
REMARK   77  A    between atoms: _222  and  _223
REMARK   78  A    between atoms: _222  and  _225
REMARK   79  A    between atoms: _225  and  _226
REMARK   80  A    between atoms: _232  and  _234
REMARK   81  A    between atoms: _234  and  _235
REMARK   82  A    between atoms: _237  and  _239
REMARK   83  A    between atoms: _239  and  _240
REMARK   84  A    between atoms: _239  and  _242
REMARK   85  A    between atoms: _245  and  _247
REMARK   86  A    between atoms: _247  and  _248
REMARK   87  A    between atoms: _247  and  _250
REMARK   88  A    between atoms: _250  and  _251
REMARK   89  A    between atoms: _251  and  _252
REMARK   90  A    between atoms: _257  and  _259
REMARK   91  A    between atoms: _259  and  _260
REMARK   92  A    between atoms: _259  and  _262
REMARK   93  A    between atoms: _262  and  _263
REMARK   94  A    between atoms: _266  and  _268
REMARK   95  A    between atoms: _268  and  _269
REMARK   96  A    between atoms: _272  and  _274
REMARK   97  A    between atoms: _274  and  _275
REMARK   98  A    between atoms: _274  and  _277
REMARK   99  A    between atoms: _280  and  _282
REMARK  100  A    between atoms: _282  and  _283
REMARK  101  A    between atoms: _282  and  _285
REMARK  102  A    between atoms: _285  and  _286
REMARK  103  A    between atoms: _289  and  _291
REMARK  104  A    between atoms: _291  and  _292
REMARK  105  A    between atoms: _294  and  _296
REMARK  106  A    between atoms: _296  and  _297
REMARK  107  A    between atoms: _296  and  _299
REMARK  108  A    between atoms: _299  and  _300
REMARK  109  A    between atoms: _302  and  _304
REMARK  110  A    between atoms: _304  and  _305
REMARK  111  A    between atoms: _304  and  _307
REMARK  112  A    between atoms: _307  and  _308
REMARK  113  A    between atoms: _311  and  _313
REMARK  114  A    between atoms: _313  and  _314
REMARK  115  A    between atoms: _313  and  _316
REMARK  116  A    between atoms: _316  and  _317
REMARK  117  A    between atoms: _320  and  _322
REMARK  118  A    between atoms: _322  and  _323
REMARK  119  A    between atoms: _322  and  _325
REMARK  120  A    between atoms: _325  and  _326
REMARK  121  A    between atoms: _330  and  _331
REMARK  122  A    between atoms: _337  and  _338
REMARK  123  A    between atoms: _343  and  _345
REMARK  124  A    between atoms: _345  and  _346
REMARK  125  A    between atoms: _345  and  _348
REMARK  126  A    between atoms: _348  and  _349
REMARK  127  A    between atoms: _352  and  _354
REMARK  128  A    between atoms: _354  and  _355
REMARK  129  A    between atoms: _354  and  _357
REMARK  130  A    between atoms: _357  and  _358
REMARK  131  A    between atoms: _361  and  _363
REMARK  132  A    between atoms: _363  and  _364
REMARK  133  A    between atoms: _363  and  _366
REMARK  134  A    between atoms: _368  and  _370
REMARK  135  A    between atoms: _370  and  _371
REMARK  136  A    between atoms: _370  and  _373
REMARK  137  A    between atoms: _376  and  _378
REMARK  138  A    between atoms: _378  and  _379
REMARK  139  A    between atoms: _378  and  _381
REMARK  140  A    between atoms: _381  and  _382
REMARK  141  A    between atoms: _392  and  _394
REMARK  142  A    between atoms: _394  and  _395
REMARK  143  A    between atoms: _394  and  _397
REMARK  144  A    between atoms: _397  and  _398
REMARK  145  A    between atoms: _403  and  _405
REMARK  146  A    between atoms: _405  and  _406
REMARK  147  A    between atoms: _405  and  _408
REMARK  148  A    between atoms: _408  and  _409
REMARK  149  A    between atoms: _409  and  _410
REMARK  150  A    between atoms: _410  and  _411
REMARK                            x       y       z     vdW  Elec       q    Type
REMARK                         _______ _______ _______ _____ _____    ______ ____
ROOT
ATOM      1  CB  ASN A   1      -8.172   2.562   6.665  0.00  0.00    +0.110 C 
ENDROOT
BRANCH   1   2
ATOM      2  CG  ASN A   1      -7.082   2.282   7.681  0.00  0.00    +0.221 C 
ATOM      3  ND2 ASN A   1      -7.180   1.154   8.370  0.00  0.00    -0.329 N 
ATOM      4 HD21 ASN A   1      -6.465   0.919   9.087  0.00  0.00    +0.145 HD
ATOM      5 HD22 ASN A   1      -7.972   0.504   8.193  0.00  0.00    +0.145 HD
ATOM      6  OD1 ASN A   1      -6.165   3.087   7.850  0.00  0.00    -0.275 OA
ENDBRANCH   1   2
BRANCH   1   7
ATOM      7  CA  ASN A   1      -9.004   1.320   6.311  0.00  0.00    +0.142 C 
BRANCH   7   8
ATOM      8  N   ASN A   1      -8.184   0.350   5.607  0.00  0.00    -0.239 NA
ATOM      9  H   ASN A   1      -7.636   0.658   4.779  0.00  0.00    +0.142 HD
ENDBRANCH   7   8
BRANCH   7  10
ATOM     10  C   ASN A   1     -10.212   1.803   5.526  0.00  0.00    +0.225 C 
ATOM     11  O   ASN A   1     -10.086   2.217   4.377  0.00  0.00    -0.287 OA
ENDBRANCH   7  10
ENDBRANCH   1   7
TORSDOF 4
REMARK  Name = ../refined-set-2016/3ibi/3ibi_pocket.pdb
REMARK  150 active torsions:
REMARK  status: ('A' for Active; 'I' for Inactive)
REMARK    1  A    between atoms: _1  and  _3
REMARK    2  A    between atoms: _3  and  _4
REMARK    3  A    between atoms: _3  and  _6
REMARK    4  A    between atoms: _6  and  _7
REMARK    5  A    between atoms: _17  and  _19
REMARK    6  A    between atoms: _19  and  _20
REMARK    7  A    between atoms: _19  and  _22
REMARK    8  A    between atoms: _22  and  _23
REMARK    9  A    between atoms: _28  and  _29
REMARK   10  A    between atoms: _31  and  _33
REMARK   11  A    between atoms: _33  and  _34
REMARK   12  A    between atoms: _33  and  _36
REMARK   13  A    between atoms: _36  and  _37
REMARK   14  A    between atoms: _40  and  _41
REMARK   15  A    between atoms: _46  and  _48
REMARK   16  A    between atoms: _48  and  _49
REMARK   17  A    between atoms: _48  and  _51
REMARK   18  A    between atoms: _51  and  _52
REMARK   19  A    between atoms: _57  and  _59
REMARK   20  A    between atoms: _59  and  _60
REMARK   21  A    between atoms: _63  and  _65
REMARK   22  A    between atoms: _65  and  _66
REMARK   23  A    between atoms: _65  and  _68
REMARK   24  A    between atoms: _68  and  _69
REMARK   25  A    between atoms: _74  and  _76
REMARK   26  A    between atoms: _76  and  _77
REMARK   27  A    between atoms: _76  and  _79
REMARK   28  A    between atoms: _79  and  _80
REMARK   29  A    between atoms: _83  and  _85
REMARK   30  A    between atoms: _85  and  _86
REMARK   31  A    between atoms: _85  and  _88
REMARK   32  A    between atoms: _88  and  _89
REMARK   33  A    between atoms: _89  and  _90
REMARK   34  A    between atoms: _95  and  _97
REMARK   35  A    between atoms: _97  and  _98
REMARK   36  A    between atoms: _97  and  _100
REMARK   37  A    between atoms: _100  and  _101
REMARK   38  A    between atoms: _107  and  _109
REMARK   39  A    between atoms: _120  and  _123
REMARK   40  A    between atoms: _123  and  _124
REMARK   41  A    between atoms: _132  and  _133
REMARK   42  A    between atoms: _141  and  _143
REMARK   43  A    between atoms: _143  and  _144
REMARK   44  A    between atoms: _143  and  _146
REMARK   45  A    between atoms: _146  and  _147
REMARK   46  A    between atoms: _147  and  _148
REMARK   47  A    between atoms: _151  and  _153
REMARK   48  A    between atoms: _153  and  _154
REMARK   49  A    between atoms: _153  and  _156
REMARK   50  A    between atoms: _156  and  _157
REMARK   51  A    between atoms: _162  and  _164
REMARK   52  A    between atoms: _164  and  _165
REMARK   53  A    between atoms: _164  and  _167
REMARK   54  A    between atoms: _167  and  _168
REMARK   55  A    between atoms: _168  and  _169
REMARK   56  A    between atoms: _172  and  _174
REMARK   57  A    between atoms: _174  and  _175
REMARK   58  A    between atoms: _174  and  _177
REMARK   59  A    between atoms: _177  and  _178
REMARK   60  A    between atoms: _181  and  _183
REMARK   61  A    between atoms: _183  and  _184
REMARK   62  A    between atoms: _183  and  _186
REMARK   63  A    between atoms: _186  and  _187
REMARK   64  A    between atoms: _188  and  ZN_420
REMARK   65  A    between atoms: _192  and  _194
REMARK   66  A    between atoms: _194  and  _195
REMARK   67  A    between atoms: _194  and  _197
REMARK   68  A    between atoms: _197  and  _198
REMARK   69  A    between atoms: _201  and  _203
REMARK   70  A    between atoms: _203  and  _204
REMARK   71  A    between atoms: _203  and  _206
REMARK   72  A    between atoms: _209  and  _211
REMARK   73  A    between atoms: _211  and  _212
REMARK   74  A    between atoms: _211  and  _214
REMARK   75  A    between atoms: _214  and  _215
REMARK   76  A    between atoms: _220  and  _222
REMARK   77  A    between atoms: _222  and  _223
REMARK   78  A    between atoms: _222  and  _225
REMARK   79  A    between atoms: _225  and  _226
REMARK   80  A    between atoms: _232  and  _234
REMARK   81  A    between atoms: _234  and  _235
REMARK   82  A    between atoms: _237  and  _239
REMARK   83  A    between atoms: _239  and  _240
REMARK   84  A    between atoms: _239  and  _242
REMARK   85  A    between atoms: _245  and  _247
REMARK   86  A    between atoms: _247  and  _248
REMARK   87  A    between atoms: _247  and  _250
REMARK   88  A    between atoms: _250  and  _251
REMARK   89  A    between atoms: _251  and  _252
REMARK   90  A    between atoms: _257  and  _259
REMARK   91  A    between atoms: _259  and  _260
REMARK   92  A    between atoms: _259  and  _262
REMARK   93  A    between atoms: _262  and  _263
REMARK   94  A    between atoms: _266  and  _268
REMARK   95  A    between atoms: _268  and  _269
REMARK   96  A    between atoms: _272  and  _274
REMARK   97  A    between atoms: _274  and  _275
REMARK   98  A    between atoms: _274  and  _277
REMARK   99  A    between atoms: _280  and  _282
REMARK  100  A    between atoms: _282  and  _283
REMARK  101  A    between atoms: _282  and  _285
REMARK  102  A    between atoms: _285  and  _286
REMARK  103  A    between atoms: _289  and  _291
REMARK  104  A    between atoms: _291  and  _292
REMARK  105  A    between atoms: _294  and  _296
REMARK  106  A    between atoms: _296  and  _297
REMARK  107  A    between atoms: _296  and  _299
REMARK  108  A    between atoms: _299  and  _300
REMARK  109  A    between atoms: _302  and  _304
REMARK  110  A    between atoms: _304  and  _305
REMARK  111  A    between atoms: _304  and  _307
REMARK  112  A    between atoms: _307  and  _308
REMARK  113  A    between atoms: _311  and  _313
REMARK  114  A    between atoms: _313  and  _314
REMARK  115  A    between atoms: _313  and  _316
REMARK  116  A    between atoms: _316  and  _317
REMARK  117  A    between atoms: _320  and  _322
REMARK  118  A    between atoms: _322  and  _323
REMARK  119  A    between atoms: _322  and  _325
REMARK  120  A    between atoms: _325  and  _326
REMARK  121  A    between atoms: _330  and  _331
REMARK  122  A    between atoms: _337  and  _338
REMARK  123  A    between atoms: _343  and  _345
REMARK  124  A    between atoms: _345  and  _346
REMARK  125  A    between atoms: _345  and  _348
REMARK  126  A    between atoms: _348  and  _349
REMARK  127  A    between atoms: _352  and  _354
REMARK  128  A    between atoms: _354  and  _355
REMARK  129  A    between atoms: _354  and  _357
REMARK  130  A    between atoms: _357  and  _358
REMARK  131  A    between atoms: _361  and  _363
REMARK  132  A    between atoms: _363  and  _364
REMARK  133  A    between atoms: _363  and  _366
REMARK  134  A    between atoms: _368  and  _370
REMARK  135  A    between atoms: _370  and  _371
REMARK  136  A    between atoms: _370  and  _373
REMARK  137  A    between atoms: _376  and  _378
REMARK  138  A    between atoms: _378  and  _379
REMARK  139  A    between atoms: _378  and  _381
REMARK  140  A    between atoms: _381  and  _382
REMARK  141  A    between atoms: _392  and  _394
REMARK  142  A    between atoms: _394  and  _395
REMARK  143  A    between atoms: _394  and  _397
REMARK  144  A    between atoms: _397  and  _398
REMARK  145  A    between atoms: _403  and  _405
REMARK  146  A    between atoms: _405  and  _406
REMARK  147  A    between atoms: _405  and  _408
REMARK  148  A    between atoms: _408  and  _409
REMARK  149  A    between atoms: _409  and  _410
REMARK  150  A    between atoms: _410  and  _411
REMARK                            x       y       z     vdW  Elec       q    Type
REMARK                         _______ _______ _______ _____ _____    ______ ____
ROOT
ATOM      1  C   UNK A   4     -10.113  -1.537  10.178  0.00  0.00    +0.000 C 
ATOM      2  C   UNK A   4     -10.184  -2.804  11.005  0.00  0.00    +0.000 C 
ATOM      3  O   UNK A   4     -10.822  -2.826  12.060  0.00  0.00    +0.000 OA
ATOM      4  N   VAL A   5      -9.530  -3.855  10.525  0.00  0.00    +0.000 N 
ATOM      5  CA  VAL A   5      -9.520  -5.126  11.233  0.00  0.00    +0.000 C 
ATOM      6  C   VAL A   5      -8.092  -5.613  11.421  0.00  0.00    +0.000 C 
ATOM      7  N   UNK A   6      -7.965  -6.634  12.261  0.00  0.00    +0.000 N 
ATOM      8  H   UNK A   6      -8.818  -6.965  12.755  0.00  0.00    +0.000 HD
ATOM      9  C   UNK A   6      -6.709  -7.321  12.536  0.00  0.00    +0.000 C 
ATOM     10  C   UNK A   6      -6.210  -7.030  13.953  0.00  0.00    +0.000 C 
ATOM     11  C   UNK A   6      -5.876  -5.592  14.192  0.00  0.00    +0.000 A 
ATOM     12  C   UNK A   6      -6.627  -4.574  14.673  0.00  0.00    +0.000 A 
ATOM     13  N   UNK A   6      -5.836  -3.452  14.673  0.00  0.00    +0.000 N 
ATOM     14 ZN   UNK A   6      -6.616  -1.685  15.167  0.00  0.00    +0.000 Zn
ATOM     15  N   UNK A   4      -7.147  -0.781  13.493  0.00  0.00    +0.000 N 
ATOM     16  C   UNK A   4      -7.813   0.357  13.403  0.00  0.00    +0.000 A 
ATOM     17  N   UNK A   4      -8.405   0.402  12.223  0.00  0.00    +0.000 NA
ATOM     18  C   UNK A   4      -8.112  -0.748  11.521  0.00  0.00    +0.000 A 
ATOM     19  C   UNK A   4      -7.317  -1.489  12.329  0.00  0.00    +0.000 A 
ATOM     20  C   UNK A   6      -4.642  -3.769  14.207  0.00  0.00    +0.000 A 
ATOM     21  N   UNK A   6      -4.639  -5.056  13.908  0.00  0.00    +0.000 NA
ATOM     22  O   VAL A   5      -7.149  -5.083  10.829  0.00  0.00    +0.000 OA
ATOM     23  H   VAL A   5      -9.015  -3.768   9.626  0.00  0.00    +0.000 HD
ATOM     24  C   UNK A   4      -8.668  -1.029  10.159  0.00  0.00    +0.000 C 
ENDROOT
BRANCH  14  25
ATOM     25  N   UNK A   6      -8.027  -2.393  16.485  0.00  0.00    +0.000 N 
ATOM     26  C   UNK A   6      -7.721  -3.278  17.417  0.00  0.00    +0.000 A 
ATOM     27  N   UNK A   6      -8.837  -3.658  18.012  0.00  0.00    +0.000 NA
ATOM     28  C   UNK A   6      -9.895  -2.992  17.444  0.00  0.00    +0.000 A 
ATOM     29  C   UNK A   6      -9.391  -2.193  16.474  0.00  0.00    +0.000 A 
BRANCH  29  30
ATOM     30  C   UNK A   6     -10.066  -1.254  15.525  0.00  0.00    +0.000 C 
BRANCH  30  31
ATOM     31  C   UNK A   6     -11.581  -1.479  15.404  0.00  0.00    +0.000 C 
BRANCH  31  32
ATOM     32  C   UNK A   6     -12.223  -0.270  14.737  0.00  0.00    +0.000 C 
ATOM     33  N   UNK A   4     -13.173   0.348  15.431  0.00  0.00    +0.000 N 
ATOM     34  H   UNK A   4     -13.444  -0.032  16.360  0.00  0.00    +0.000 HD
ATOM     35  O   UNK A   6     -11.879   0.080  13.608  0.00  0.00    +0.000 OA
BRANCH  33  36
ATOM     36  C   UNK A   4     -13.849   1.542  14.933  0.00  0.00    +0.000 C 
BRANCH  36  37
ATOM     37  C   UNK A   4     -13.222   2.683  15.727  0.00  0.00    +0.000 C 
ATOM     38  O   UNK A   4     -13.424   2.801  16.942  0.00  0.00    +0.000 OA
ATOM     39  N   VAL A   5     -12.442   3.504  15.034  0.00  0.00    +0.000 N 
ATOM     40  H   VAL A   5     -12.350   3.360  14.008  0.00  0.00    +0.000 HD
BRANCH  39  41
ATOM     41  CA  VAL A   5     -11.708   4.603  15.660  0.00  0.00    +0.000 C 
BRANCH  41  42
ATOM     42  C   VAL A   5     -12.467   5.922  15.700  0.00  0.00    +0.000 C 
ATOM     43  N   UNK A   6     -12.494   6.548  16.877  0.00  0.00    +0.000 N 
ATOM     44  H   UNK A   6     -12.009   6.114  17.688  0.00  0.00    +0.000 HD
ATOM     45  O   VAL A   5     -13.010   6.362  14.686  0.00  0.00    +0.000 OA
BRANCH  43  46
ATOM     46  C   UNK A   6     -13.184   7.827  17.067  0.00  0.00    +0.000 C 
BRANCH  46  47
ATOM     47  C   UNK A   6     -12.278   8.814  17.809  0.00  0.00    +0.000 C 
ATOM     48  O   UNK A   6     -11.483   8.407  18.662  0.00  0.00    +0.000 OA
ENDBRANCH  46  47
BRANCH  46  49
ATOM     49  C   UNK A   6     -14.459   7.653  17.915  0.00  0.00    +0.000 C 
BRANCH  49  50
ATOM     50  C   UNK A   6     -15.310   6.479  17.535  0.00  0.00    +0.000 A 
ATOM     51  N   UNK A   6     -14.910   5.174  17.726  0.00  0.00    +0.000 NA
ATOM     52  C   UNK A   6     -15.877   4.358  17.343  0.00  0.00    +0.000 A 
ATOM     53  N   UNK A   6     -16.890   5.087  16.910  0.00  0.00    +0.000 NA
ATOM     54  C   UNK A   6     -16.561   6.416  17.017  0.00  0.00    +0.000 A 
ENDBRANCH  49  50
ENDBRANCH  46  49
ENDBRANCH  43  46
ENDBRANCH  41  42
BRANCH  41  55
ATOM     55  CB  VAL A   5     -10.364   4.810  14.931  0.00  0.00    +0.000 C 
ATOM     56  CG2 VAL A   5      -9.476   5.774  15.706  0.00  0.00    +0.000 C 
ATOM     57  CG1 VAL A   5      -9.676   3.469  14.745  0.00  0.00    +0.000 C 
ENDBRANCH  41  55
ENDBRANCH  39  41
ENDBRANCH  36  37
BRANCH  36  58
ATOM     58  C   UNK A   4     -15.356   1.435  15.184  0.00  0.00    +0.000 C 
BRANCH  58  59
ATOM     59  C   UNK A   4     -16.015   0.342  14.330  0.00  0.00    +0.000 C 
ATOM     60  C   UNK A   4     -16.896  -0.549  15.191  0.00  0.00    +0.000 C 
ATOM     61  C   UNK A   4     -16.822   0.998  13.216  0.00  0.00    +0.000 C 
ENDBRANCH  58  59
ENDBRANCH  36  58
ENDBRANCH  33  36
ENDBRANCH  31  32
BRANCH  31  62
ATOM     62  N   UNK A   6     -11.852  -2.688  14.642  0.00  0.00    +0.000 N 
ATOM     63  C   LEU A   2     -12.506  -3.721  15.167  0.00  0.00    +0.000 C 
ATOM     64  O   LEU A   2     -12.918  -3.738  16.329  0.00  0.00    +0.000 OA
ATOM     65  H   UNK A   6     -11.525  -2.747  13.657  0.00  0.00    +0.000 HD
BRANCH  63  66
ATOM     66  CA  LEU A   2     -12.735  -4.918  14.248  0.00  0.00    +0.000 C 
BRANCH  66  67
ATOM     67  N   LEU A   2     -12.355  -6.141  14.943  0.00  0.00    +0.000 N 
ATOM     68  H   LEU A   2     -13.045  -6.572  15.591  0.00  0.00    +0.000 HD
ATOM     69  C   GLU A   1     -11.177  -6.735  14.795  0.00  0.00    +0.000 C 
ATOM     70  O   GLU A   1     -10.290  -6.325  14.045  0.00  0.00    +0.000 OA
BRANCH  69  71
ATOM     71  CA  GLU A   1     -10.982  -7.994  15.616  0.00  0.00    +0.000 C 
BRANCH  71  72
ATOM     72  N   GLU A   1     -10.487  -9.057  14.751  0.00  0.00    +0.000 NA
ATOM     73  H   GLU A   1      -9.871  -8.815  13.949  0.00  0.00    +0.000 HD
ENDBRANCH  71  72
BRANCH  71  74
ATOM     74  CB  GLU A   1      -9.995  -7.714  16.756  0.00  0.00    +0.000 C 
BRANCH  74  75
ATOM     75  CG  GLU A   1     -10.552  -6.817  17.873  0.00  0.00    +0.000 C 
BRANCH  75  76
ATOM     76  CD  GLU A   1      -9.597  -6.717  19.049  0.00  0.00    +0.000 C 
ATOM     77  OE2 GLU A   1      -9.519  -5.640  19.680  0.00  0.00    +0.000 OA
ATOM     78  OE1 GLU A   1      -8.928  -7.727  19.348  0.00  0.00    +0.000 OA
ENDBRANCH  75  76
ENDBRANCH  74  75
ENDBRANCH  71  74
ENDBRANCH  69  71
ENDBRANCH  66  67
BRANCH  66  79
ATOM     79  CB  LEU A   2     -14.218  -4.990  13.869  0.00  0.00    +0.000 C 
BRANCH  79  80
ATOM     80  CG  LEU A   2     -14.956  -3.710  13.469  0.00  0.00    +0.000 C 
ATOM     81  CD2 LEU A   2     -16.431  -4.040  13.274  0.00  0.00    +0.000 C 
ATOM     82  CD1 LEU A   2     -14.364  -3.135  12.194  0.00  0.00    +0.000 C 
ENDBRANCH  79  80
ENDBRANCH  66  79
ENDBRANCH  63  66
ENDBRANCH  31  62
ENDBRANCH  30  31
ENDBRANCH  29  30
ENDBRANCH  14  25
BRANCH   1  84
ATOM     83  C   UNK A   3     -11.561   0.422  10.145  0.00  0.00    +0.000 C 
ATOM     84  N   UNK A   4     -10.990  -0.572  10.815  0.00  0.00    +0.000 N 
ATOM     85  H   UNK A   4     -11.178  -0.662  11.834  0.00  0.00    +0.000 HD
ATOM     86  O   UNK A   3     -11.366   0.630   8.946  0.00  0.00    +0.000 OA
BRANCH  83  87
ATOM     87  C   UNK A   3     -12.439   1.350  10.964  0.00  0.00    +0.000 C 
BRANCH  87  90
ATOM     88  C   LEU A   2     -12.372   3.768  11.039  0.00  0.00    +0.000 C 
ATOM     89  O   LEU A   2     -12.457   3.781  12.262  0.00  0.00    +0.000 OA
ATOM     90  N   UNK A   3     -12.421   2.651  10.317  0.00  0.00    +0.000 N 
ATOM     91  H   UNK A   3     -12.447   2.710   9.279  0.00  0.00    +0.000 HD
BRANCH  88  92
ATOM     92  CA  LEU A   2     -12.249   5.066  10.262  0.00  0.00    +0.000 C 
BRANCH  92  94
ATOM     93  C   GLU A   1     -12.673   7.431  10.573  0.00  0.00    +0.000 C 
ATOM     94  N   LEU A   2     -12.543   6.219  11.106  0.00  0.00    +0.000 N 
ATOM     95  H   LEU A   2     -12.652   6.093  12.133  0.00  0.00    +0.000 HD
ATOM     96  O   GLU A   1     -12.574   7.635   9.362  0.00  0.00    +0.000 OA
BRANCH  93  97
ATOM     97  CA  GLU A   1     -12.988   8.583  11.530  0.00  0.00    +0.000 C 
BRANCH  97  98
ATOM     98  CB  GLU A   1     -11.672   9.225  12.052  0.00  0.00    +0.000 C 
ATOM     99  CG2 GLU A   1     -10.916   8.243  12.925  0.00  0.00    +0.000 C 
BRANCH  98 100
ATOM    100  CG1 GLU A   1     -10.812   9.676  10.867  0.00  0.00    +0.000 C 
ATOM    101  CD1 GLU A   1      -9.696  10.655  11.246  0.00  0.00    +0.000 C 
ENDBRANCH  98 100
ENDBRANCH  97  98
BRANCH  97 102
ATOM    102  N   GLU A   1     -13.846   8.150  12.621  0.00  0.00    +0.000 NA
ATOM    103  H   GLU A   1     -13.486   7.478  13.329  0.00  0.00    +0.000 HD
ENDBRANCH  97 102
ENDBRANCH  93  97
ENDBRANCH  92  94
BRANCH  92 104
ATOM    104  CB  LEU A   2     -10.823   5.168   9.711  0.00  0.00    +0.000 C 
BRANCH 104 105
ATOM    105  CG  LEU A   2      -9.717   5.145  10.786  0.00  0.00    +0.000 C 
BRANCH 105 106
ATOM    106  CD  LEU A   2      -9.007   3.799  10.892  0.00  0.00    +0.000 C 
ATOM    107  OE1 LEU A   2      -9.638   2.765  11.103  0.00  0.00    +0.000 OA
ATOM    108  NE2 LEU A   2      -7.683   3.813  10.749  0.00  0.00    +0.000 N 
ATOM    109 HE21 LEU A   2      -7.143   2.926  10.815  0.00  0.00    +0.000 HD
ATOM    110 HE22 LEU A   2      -7.189   4.711  10.572  0.00  0.00    +0.000 HD
ENDBRANCH 105 106
ENDBRANCH 104 105
ENDBRANCH  92 104
ENDBRANCH  88  92
ENDBRANCH  87  90
BRANCH  87 111
ATOM    111  C   UNK A   3     -13.875   0.804  11.159  0.00  0.00    +0.000 C 
BRANCH 111 112
ATOM    112  C   UNK A   3     -14.548   0.294   9.909  0.00  0.00    +0.000 A 
ATOM    113  C   UNK A   3     -15.680   0.936   9.411  0.00  0.00    +0.000 A 
ATOM    114  C   UNK A   3     -16.381   0.421   8.327  0.00  0.00    +0.000 A 
ATOM    115  C   UNK A   3     -15.952  -0.752   7.718  0.00  0.00    +0.000 A 
ATOM    116  C   UNK A   3     -14.818  -1.404   8.196  0.00  0.00    +0.000 A 
ATOM    117  C   UNK A   3     -14.121  -0.877   9.289  0.00  0.00    +0.000 A 
ENDBRANCH 111 112
ENDBRANCH  87 111
ENDBRANCH  83  87
ENDBRANCH   1  84
BRANCH   9 118
ATOM    118  C   UNK A   6      -7.179  -8.767  12.447  0.00  0.00    +0.000 C 
ATOM    119  O   UNK A   6      -8.201  -9.114  13.036  0.00  0.00    +0.000 OA
ENDBRANCH   9 118
BRANCH   5 120
ATOM    120  CB  VAL A   5     -10.254  -6.218  10.442  0.00  0.00    +0.000 C 
BRANCH 120 121
ATOM    121  CG  VAL A   5     -11.680  -5.898  10.096  0.00  0.00    +0.000 A 
ATOM    122  CD2 VAL A   5     -12.725  -6.528  10.765  0.00  0.00    +0.000 A 
ATOM    123  CE2 VAL A   5     -14.052  -6.302  10.392  0.00  0.00    +0.000 A 
ATOM    124  CZ  VAL A   5     -14.339  -5.435   9.341  0.00  0.00    +0.000 A 
ATOM    125  CE1 VAL A   5     -13.305  -4.797   8.672  0.00  0.00    +0.000 A 
ATOM    126  CD1 VAL A   5     -11.981  -5.029   9.051  0.00  0.00    +0.000 A 
ENDBRANCH 120 121
ENDBRANCH   5 120
TORSDOF 42
REMARK  Name = ../refined-set-2016/3ibi/3ibi_pocket.pdb
REMARK  150 active torsions:
REMARK  status: ('A' for Active; 'I' for Inactive)
REMARK    1  A    between atoms: _1  and  _3
REMARK    2  A    between atoms: _3  and  _4
REMARK    3  A    between atoms: _3  and  _6
REMARK    4  A    between atoms: _6  and  _7
REMARK    5  A    between atoms: _17  and  _19
REMARK    6  A    between atoms: _19  and  _20
REMARK    7  A    between atoms: _19  and  _22
REMARK    8  A    between atoms: _22  and  _23
REMARK    9  A    between atoms: _28  and  _29
REMARK   10  A    between atoms: _31  and  _33
REMARK   11  A    between atoms: _33  and  _34
REMARK   12  A    between atoms: _33  and  _36
REMARK   13  A    between atoms: _36  and  _37
REMARK   14  A    between atoms: _40  and  _41
REMARK   15  A    between atoms: _46  and  _48
REMARK   16  A    between atoms: _48  and  _49
REMARK   17  A    between atoms: _48  and  _51
REMARK   18  A    between atoms: _51  and  _52
REMARK   19  A    between atoms: _57  and  _59
REMARK   20  A    between atoms: _59  and  _60
REMARK   21  A    between atoms: _63  and  _65
REMARK   22  A    between atoms: _65  and  _66
REMARK   23  A    between atoms: _65  and  _68
REMARK   24  A    between atoms: _68  and  _69
REMARK   25  A    between atoms: _74  and  _76
REMARK   26  A    between atoms: _76  and  _77
REMARK   27  A    between atoms: _76  and  _79
REMARK   28  A    between atoms: _79  and  _80
REMARK   29  A    between atoms: _83  and  _85
REMARK   30  A    between atoms: _85  and  _86
REMARK   31  A    between atoms: _85  and  _88
REMARK   32  A    between atoms: _88  and  _89
REMARK   33  A    between atoms: _89  and  _90
REMARK   34  A    between atoms: _95  and  _97
REMARK   35  A    between atoms: _97  and  _98
REMARK   36  A    between atoms: _97  and  _100
REMARK   37  A    between atoms: _100  and  _101
REMARK   38  A    between atoms: _107  and  _109
REMARK   39  A    between atoms: _120  and  _123
REMARK   40  A    between atoms: _123  and  _124
REMARK   41  A    between atoms: _132  and  _133
REMARK   42  A    between atoms: _141  and  _143
REMARK   43  A    between atoms: _143  and  _144
REMARK   44  A    between atoms: _143  and  _146
REMARK   45  A    between atoms: _146  and  _147
REMARK   46  A    between atoms: _147  and  _148
REMARK   47  A    between atoms: _151  and  _153
REMARK   48  A    between atoms: _153  and  _154
REMARK   49  A    between atoms: _153  and  _156
REMARK   50  A    between atoms: _156  and  _157
REMARK   51  A    between atoms: _162  and  _164
REMARK   52  A    between atoms: _164  and  _165
REMARK   53  A    between atoms: _164  and  _167
REMARK   54  A    between atoms: _167  and  _168
REMARK   55  A    between atoms: _168  and  _169
REMARK   56  A    between atoms: _172  and  _174
REMARK   57  A    between atoms: _174  and  _175
REMARK   58  A    between atoms: _174  and  _177
REMARK   59  A    between atoms: _177  and  _178
REMARK   60  A    between atoms: _181  and  _183
REMARK   61  A    between atoms: _183  and  _184
REMARK   62  A    between atoms: _183  and  _186
REMARK   63  A    between atoms: _186  and  _187
REMARK   64  A    between atoms: _188  and  ZN_420
REMARK   65  A    between atoms: _192  and  _194
REMARK   66  A    between atoms: _194  and  _195
REMARK   67  A    between atoms: _194  and  _197
REMARK   68  A    between atoms: _197  and  _198
REMARK   69  A    between atoms: _201  and  _203
REMARK   70  A    between atoms: _203  and  _204
REMARK   71  A    between atoms: _203  and  _206
REMARK   72  A    between atoms: _209  and  _211
REMARK   73  A    between atoms: _211  and  _212
REMARK   74  A    between atoms: _211  and  _214
REMARK   75  A    between atoms: _214  and  _215
REMARK   76  A    between atoms: _220  and  _222
REMARK   77  A    between atoms: _222  and  _223
REMARK   78  A    between atoms: _222  and  _225
REMARK   79  A    between atoms: _225  and  _226
REMARK   80  A    between atoms: _232  and  _234
REMARK   81  A    between atoms: _234  and  _235
REMARK   82  A    between atoms: _237  and  _239
REMARK   83  A    between atoms: _239  and  _240
REMARK   84  A    between atoms: _239  and  _242
REMARK   85  A    between atoms: _245  and  _247
REMARK   86  A    between atoms: _247  and  _248
REMARK   87  A    between atoms: _247  and  _250
REMARK   88  A    between atoms: _250  and  _251
REMARK   89  A    between atoms: _251  and  _252
REMARK   90  A    between atoms: _257  and  _259
REMARK   91  A    between atoms: _259  and  _260
REMARK   92  A    between atoms: _259  and  _262
REMARK   93  A    between atoms: _262  and  _263
REMARK   94  A    between atoms: _266  and  _268
REMARK   95  A    between atoms: _268  and  _269
REMARK   96  A    between atoms: _272  and  _274
REMARK   97  A    between atoms: _274  and  _275
REMARK   98  A    between atoms: _274  and  _277
REMARK   99  A    between atoms: _280  and  _282
REMARK  100  A    between atoms: _282  and  _283
REMARK  101  A    between atoms: _282  and  _285
REMARK  102  A    between atoms: _285  and  _286
REMARK  103  A    between atoms: _289  and  _291
REMARK  104  A    between atoms: _291  and  _292
REMARK  105  A    between atoms: _294  and  _296
REMARK  106  A    between atoms: _296  and  _297
REMARK  107  A    between atoms: _296  and  _299
REMARK  108  A    between atoms: _299  and  _300
REMARK  109  A    between atoms: _302  and  _304
REMARK  110  A    between atoms: _304  and  _305
REMARK  111  A    between atoms: _304  and  _307
REMARK  112  A    between atoms: _307  and  _308
REMARK  113  A    between atoms: _311  and  _313
REMARK  114  A    between atoms: _313  and  _314
REMARK  115  A    between atoms: _313  and  _316
REMARK  116  A    between atoms: _316  and  _317
REMARK  117  A    between atoms: _320  and  _322
REMARK  118  A    between atoms: _322  and  _323
REMARK  119  A    between atoms: _322  and  _325
REMARK  120  A    between atoms: _325  and  _326
REMARK  121  A    between atoms: _330  and  _331
REMARK  122  A    between atoms: _337  and  _338
REMARK  123  A    between atoms: _343  and  _345
REMARK  124  A    between atoms: _345  and  _346
REMARK  125  A    between atoms: _345  and  _348
REMARK  126  A    between atoms: _348  and  _349
REMARK  127  A    between atoms: _352  and  _354
REMARK  128  A    between atoms: _354  and  _355
REMARK  129  A    between atoms: _354  and  _357
REMARK  130  A    between atoms: _357  and  _358
REMARK  131  A    between atoms: _361  and  _363
REMARK  132  A    between atoms: _363  and  _364
REMARK  133  A    between atoms: _363  and  _366
REMARK  134  A    between atoms: _368  and  _370
REMARK  135  A    between atoms: _370  and  _371
REMARK  136  A    between atoms: _370  and  _373
REMARK  137  A    between atoms: _376  and  _378
REMARK  138  A    between atoms: _378  and  _379
REMARK  139  A    between atoms: _378  and  _381
REMARK  140  A    between atoms: _381  and  _382
REMARK  141  A    between atoms: _392  and  _394
REMARK  142  A    between atoms: _394  and  _395
REMARK  143  A    between atoms: _394  and  _397
REMARK  144  A    between atoms: _397  and  _398
REMARK  145  A    between atoms: _403  and  _405
REMARK  146  A    between atoms: _405  and  _406
REMARK  147  A    between atoms: _405  and  _408
REMARK  148  A    between atoms: _408  and  _409
REMARK  149  A    between atoms: _409  and  _410
REMARK  150  A    between atoms: _410  and  _411
REMARK                            x       y       z     vdW  Elec       q    Type
REMARK                         _______ _______ _______ _____ _____    ______ ____
ROOT
ATOM      1  C   GLU A   1      -5.841  -8.524  20.931  0.00  0.00    +0.238 C 
ATOM      2  O   GLU A   1      -5.028  -9.031  21.700  0.00  0.00    -0.274 OA
ATOM      3  N   HIS A   2      -7.031  -8.092  21.341  0.00  0.00    -0.298 N 
ATOM      4  H   HIS A   2      -7.680  -7.616  20.683  0.00  0.00    +0.150 HD
ENDROOT
BRANCH   1   5
ATOM      5  CA  GLU A   1      -5.504  -8.368  19.457  0.00  0.00    +0.145 C 
BRANCH   5   6
ATOM      6  N   GLU A   1      -6.556  -9.004  18.679  0.00  0.00    -0.238 NA
ATOM      7  H   GLU A   1      -7.413  -8.464  18.441  0.00  0.00    +0.142 HD
ENDBRANCH   5   6
BRANCH   5   8
ATOM      8  CB  GLU A   1      -5.364  -6.901  19.053  0.00  0.00    +0.038 C 
BRANCH   8   9
ATOM      9  CG  GLU A   1      -4.962  -6.757  17.587  0.00  0.00    +0.116 C 
BRANCH   9  10
ATOM     10  CD  GLU A   1      -4.293  -5.436  17.288  0.00  0.00    +0.365 C 
ATOM     11  OE2 GLU A   1      -4.928  -4.383  17.500  0.00  0.00    -0.246 OA
ATOM     12  OE1 GLU A   1      -3.127  -5.457  16.840  0.00  0.00    -0.246 OA
ENDBRANCH   9  10
ENDBRANCH   8   9
ENDBRANCH   5   8
ENDBRANCH   1   5
BRANCH   3  13
ATOM     13  CA  HIS A   2      -7.403  -8.302  22.733  0.00  0.00    +0.143 C 
BRANCH  13  14
ATOM     14  C   HIS A   2      -7.784  -9.771  22.804  0.00  0.00    +0.227 C 
ATOM     15  O   HIS A   2      -8.150 -10.372  21.791  0.00  0.00    -0.286 OA
ENDBRANCH  13  14
BRANCH  13  16
ATOM     16  CB  HIS A   2      -8.611  -7.452  23.145  0.00  0.00    +0.075 C 
BRANCH  16  17
ATOM     17  CG  HIS A   2      -8.324  -5.986  23.211  0.00  0.00    +0.082 A 
ATOM     18  CD2 HIS A   2      -7.935  -5.199  24.244  0.00  0.00    +0.115 A 
ATOM     19  NE2 HIS A   2      -7.758  -3.932  23.743  0.00  0.00    -0.221 NA
ATOM     20  CE1 HIS A   2      -8.031  -3.940  22.450  0.00  0.00    +0.199 A 
ATOM     21  ND1 HIS A   2      -8.376  -5.168  22.105  0.00  0.00    -0.227 NA
ENDBRANCH  16  17
ENDBRANCH  13  16
ENDBRANCH   3  13
TORSDOF 9
REMARK  Name = ../refined-set-2016/3ibi/3ibi_pocket.pdb
REMARK  150 active torsions:
REMARK  status: ('A' for Active; 'I' for Inactive)
REMARK    1  A    between atoms: _1  and  _3
REMARK    2  A    between atoms: _3  and  _4
REMARK    3  A    between atoms: _3  and  _6
REMARK    4  A    between atoms: _6  and  _7
REMARK    5  A    between atoms: _17  and  _19
REMARK    6  A    between atoms: _19  and  _20
REMARK    7  A    between atoms: _19  and  _22
REMARK    8  A    between atoms: _22  and  _23
REMARK    9  A    between atoms: _28  and  _29
REMARK   10  A    between atoms: _31  and  _33
REMARK   11  A    between atoms: _33  and  _34
REMARK   12  A    between atoms: _33  and  _36
REMARK   13  A    between atoms: _36  and  _37
REMARK   14  A    between atoms: _40  and  _41
REMARK   15  A    between atoms: _46  and  _48
REMARK   16  A    between atoms: _48  and  _49
REMARK   17  A    between atoms: _48  and  _51
REMARK   18  A    between atoms: _51  and  _52
REMARK   19  A    between atoms: _57  and  _59
REMARK   20  A    between atoms: _59  and  _60
REMARK   21  A    between atoms: _63  and  _65
REMARK   22  A    between atoms: _65  and  _66
REMARK   23  A    between atoms: _65  and  _68
REMARK   24  A    between atoms: _68  and  _69
REMARK   25  A    between atoms: _74  and  _76
REMARK   26  A    between atoms: _76  and  _77
REMARK   27  A    between atoms: _76  and  _79
REMARK   28  A    between atoms: _79  and  _80
REMARK   29  A    between atoms: _83  and  _85
REMARK   30  A    between atoms: _85  and  _86
REMARK   31  A    between atoms: _85  and  _88
REMARK   32  A    between atoms: _88  and  _89
REMARK   33  A    between atoms: _89  and  _90
REMARK   34  A    between atoms: _95  and  _97
REMARK   35  A    between atoms: _97  and  _98
REMARK   36  A    between atoms: _97  and  _100
REMARK   37  A    between atoms: _100  and  _101
REMARK   38  A    between atoms: _107  and  _109
REMARK   39  A    between atoms: _120  and  _123
REMARK   40  A    between atoms: _123  and  _124
REMARK   41  A    between atoms: _132  and  _133
REMARK   42  A    between atoms: _141  and  _143
REMARK   43  A    between atoms: _143  and  _144
REMARK   44  A    between atoms: _143  and  _146
REMARK   45  A    between atoms: _146  and  _147
REMARK   46  A    between atoms: _147  and  _148
REMARK   47  A    between atoms: _151  and  _153
REMARK   48  A    between atoms: _153  and  _154
REMARK   49  A    between atoms: _153  and  _156
REMARK   50  A    between atoms: _156  and  _157
REMARK   51  A    between atoms: _162  and  _164
REMARK   52  A    between atoms: _164  and  _165
REMARK   53  A    between atoms: _164  and  _167
REMARK   54  A    between atoms: _167  and  _168
REMARK   55  A    between atoms: _168  and  _169
REMARK   56  A    between atoms: _172  and  _174
REMARK   57  A    between atoms: _174  and  _175
REMARK   58  A    between atoms: _174  and  _177
REMARK   59  A    between atoms: _177  and  _178
REMARK   60  A    between atoms: _181  and  _183
REMARK   61  A    between atoms: _183  and  _184
REMARK   62  A    between atoms: _183  and  _186
REMARK   63  A    between atoms: _186  and  _187
REMARK   64  A    between atoms: _188  and  ZN_420
REMARK   65  A    between atoms: _192  and  _194
REMARK   66  A    between atoms: _194  and  _195
REMARK   67  A    between atoms: _194  and  _197
REMARK   68  A    between atoms: _197  and  _198
REMARK   69  A    between atoms: _201  and  _203
REMARK   70  A    between atoms: _203  and  _204
REMARK   71  A    between atoms: _203  and  _206
REMARK   72  A    between atoms: _209  and  _211
REMARK   73  A    between atoms: _211  and  _212
REMARK   74  A    between atoms: _211  and  _214
REMARK   75  A    between atoms: _214  and  _215
REMARK   76  A    between atoms: _220  and  _222
REMARK   77  A    between atoms: _222  and  _223
REMARK   78  A    between atoms: _222  and  _225
REMARK   79  A    between atoms: _225  and  _226
REMARK   80  A    between atoms: _232  and  _234
REMARK   81  A    between atoms: _234  and  _235
REMARK   82  A    between atoms: _237  and  _239
REMARK   83  A    between atoms: _239  and  _240
REMARK   84  A    between atoms: _239  and  _242
REMARK   85  A    between atoms: _245  and  _247
REMARK   86  A    between atoms: _247  and  _248
REMARK   87  A    between atoms: _247  and  _250
REMARK   88  A    between atoms: _250  and  _251
REMARK   89  A    between atoms: _251  and  _252
REMARK   90  A    between atoms: _257  and  _259
REMARK   91  A    between atoms: _259  and  _260
REMARK   92  A    between atoms: _259  and  _262
REMARK   93  A    between atoms: _262  and  _263
REMARK   94  A    between atoms: _266  and  _268
REMARK   95  A    between atoms: _268  and  _269
REMARK   96  A    between atoms: _272  and  _274
REMARK   97  A    between atoms: _274  and  _275
REMARK   98  A    between atoms: _274  and  _277
REMARK   99  A    between atoms: _280  and  _282
REMARK  100  A    between atoms: _282  and  _283
REMARK  101  A    between atoms: _282  and  _285
REMARK  102  A    between atoms: _285  and  _286
REMARK  103  A    between atoms: _289  and  _291
REMARK  104  A    between atoms: _291  and  _292
REMARK  105  A    between atoms: _294  and  _296
REMARK  106  A    between atoms: _296  and  _297
REMARK  107  A    between atoms: _296  and  _299
REMARK  108  A    between atoms: _299  and  _300
REMARK  109  A    between atoms: _302  and  _304
REMARK  110  A    between atoms: _304  and  _305
REMARK  111  A    between atoms: _304  and  _307
REMARK  112  A    between atoms: _307  and  _308
REMARK  113  A    between atoms: _311  and  _313
REMARK  114  A    between atoms: _313  and  _314
REMARK  115  A    between atoms: _313  and  _316
REMARK  116  A    between atoms: _316  and  _317
REMARK  117  A    between atoms: _320  and  _322
REMARK  118  A    between atoms: _322  and  _323
REMARK  119  A    between atoms: _322  and  _325
REMARK  120  A    between atoms: _325  and  _326
REMARK  121  A    between atoms: _330  and  _331
REMARK  122  A    between atoms: _337  and  _338
REMARK  123  A    between atoms: _343  and  _345
REMARK  124  A    between atoms: _345  and  _346
REMARK  125  A    between atoms: _345  and  _348
REMARK  126  A    between atoms: _348  and  _349
REMARK  127  A    between atoms: _352  and  _354
REMARK  128  A    between atoms: _354  and  _355
REMARK  129  A    between atoms: _354  and  _357
REMARK  130  A    between atoms: _357  and  _358
REMARK  131  A    between atoms: _361  and  _363
REMARK  132  A    between atoms: _363  and  _364
REMARK  133  A    between atoms: _363  and  _366
REMARK  134  A    between atoms: _368  and  _370
REMARK  135  A    between atoms: _370  and  _371
REMARK  136  A    between atoms: _370  and  _373
REMARK  137  A    between atoms: _376  and  _378
REMARK  138  A    between atoms: _378  and  _379
REMARK  139  A    between atoms: _378  and  _381
REMARK  140  A    between atoms: _381  and  _382
REMARK  141  A    between atoms: _392  and  _394
REMARK  142  A    between atoms: _394  and  _395
REMARK  143  A    between atoms: _394  and  _397
REMARK  144  A    between atoms: _397  and  _398
REMARK  145  A    between atoms: _403  and  _405
REMARK  146  A    between atoms: _405  and  _406
REMARK  147  A    between atoms: _405  and  _408
REMARK  148  A    between atoms: _408  and  _409
REMARK  149  A    between atoms: _409  and  _410
REMARK  150  A    between atoms: _410  and  _411
REMARK                            x       y       z     vdW  Elec       q    Type
REMARK                         _______ _______ _______ _____ _____    ______ ____
ROOT
ATOM      1  CA  PHE A   1      -7.838  13.709  14.952  0.00  0.00    +0.149 C 
ENDROOT
BRANCH   1   2
ATOM      2  C   PHE A   1      -6.401  14.041  15.350  0.00  0.00    +0.239 C 
ATOM      3  O   PHE A   1      -5.895  13.532  16.352  0.00  0.00    -0.274 OA
ATOM      4  N   GLY A   2      -5.752  14.896  14.567  0.00  0.00    -0.297 N 
ATOM      5  H   GLY A   2      -6.236  15.307  13.743  0.00  0.00    +0.150 HD
BRANCH   4   6
ATOM      6  CA  GLY A   2      -4.376  15.263  14.848  0.00  0.00    +0.163 C 
BRANCH   6   7
ATOM      7  C   GLY A   2      -4.125  15.761  16.260  0.00  0.00    +0.229 C 
ATOM      8  O   GLY A   2      -3.227  15.279  16.943  0.00  0.00    -0.286 OA
ENDBRANCH   6   7
ENDBRANCH   4   6
ENDBRANCH   1   2
BRANCH   1   9
ATOM      9  N   PHE A   1      -8.622  14.881  14.605  0.00  0.00    -0.238 NA
ATOM     10  H   PHE A   1      -9.043  14.949  13.656  0.00  0.00    +0.142 HD
ENDBRANCH   1   9
BRANCH   1  11
ATOM     11  CB  PHE A   1      -7.852  12.720  13.786  0.00  0.00    +0.053 C 
BRANCH  11  12
ATOM     12  CG  PHE A   1      -7.131  11.438  14.072  0.00  0.00    -0.020 A 
ATOM     13  CD2 PHE A   1      -7.819  10.344  14.586  0.00  0.00    -0.004 A 
ATOM     14  CE2 PHE A   1      -7.154   9.160  14.879  0.00  0.00    -0.000 A 
ATOM     15  CZ  PHE A   1      -5.785   9.060  14.660  0.00  0.00    -0.000 A 
ATOM     16  CE1 PHE A   1      -5.089  10.147  14.147  0.00  0.00    -0.000 A 
ATOM     17  CD1 PHE A   1      -5.763  11.329  13.858  0.00  0.00    -0.004 A 
ENDBRANCH  11  12
ENDBRANCH   1  11
TORSDOF 6
REMARK  Name = ../refined-set-2016/3ibi/3ibi_pocket.pdb
REMARK  150 active torsions:
REMARK  status: ('A' for Active; 'I' for Inactive)
REMARK    1  A    between atoms: _1  and  _3
REMARK    2  A    between atoms: _3  and  _4
REMARK    3  A    between atoms: _3  and  _6
REMARK    4  A    between atoms: _6  and  _7
REMARK    5  A    between atoms: _17  and  _19
REMARK    6  A    between atoms: _19  and  _20
REMARK    7  A    between atoms: _19  and  _22
REMARK    8  A    between atoms: _22  and  _23
REMARK    9  A    between atoms: _28  and  _29
REMARK   10  A    between atoms: _31  and  _33
REMARK   11  A    between atoms: _33  and  _34
REMARK   12  A    between atoms: _33  and  _36
REMARK   13  A    between atoms: _36  and  _37
REMARK   14  A    between atoms: _40  and  _41
REMARK   15  A    between atoms: _46  and  _48
REMARK   16  A    between atoms: _48  and  _49
REMARK   17  A    between atoms: _48  and  _51
REMARK   18  A    between atoms: _51  and  _52
REMARK   19  A    between atoms: _57  and  _59
REMARK   20  A    between atoms: _59  and  _60
REMARK   21  A    between atoms: _63  and  _65
REMARK   22  A    between atoms: _65  and  _66
REMARK   23  A    between atoms: _65  and  _68
REMARK   24  A    between atoms: _68  and  _69
REMARK   25  A    between atoms: _74  and  _76
REMARK   26  A    between atoms: _76  and  _77
REMARK   27  A    between atoms: _76  and  _79
REMARK   28  A    between atoms: _79  and  _80
REMARK   29  A    between atoms: _83  and  _85
REMARK   30  A    between atoms: _85  and  _86
REMARK   31  A    between atoms: _85  and  _88
REMARK   32  A    between atoms: _88  and  _89
REMARK   33  A    between atoms: _89  and  _90
REMARK   34  A    between atoms: _95  and  _97
REMARK   35  A    between atoms: _97  and  _98
REMARK   36  A    between atoms: _97  and  _100
REMARK   37  A    between atoms: _100  and  _101
REMARK   38  A    between atoms: _107  and  _109
REMARK   39  A    between atoms: _120  and  _123
REMARK   40  A    between atoms: _123  and  _124
REMARK   41  A    between atoms: _132  and  _133
REMARK   42  A    between atoms: _141  and  _143
REMARK   43  A    between atoms: _143  and  _144
REMARK   44  A    between atoms: _143  and  _146
REMARK   45  A    between atoms: _146  and  _147
REMARK   46  A    between atoms: _147  and  _148
REMARK   47  A    between atoms: _151  and  _153
REMARK   48  A    between atoms: _153  and  _154
REMARK   49  A    between atoms: _153  and  _156
REMARK   50  A    between atoms: _156  and  _157
REMARK   51  A    between atoms: _162  and  _164
REMARK   52  A    between atoms: _164  and  _165
REMARK   53  A    between atoms: _164  and  _167
REMARK   54  A    between atoms: _167  and  _168
REMARK   55  A    between atoms: _168  and  _169
REMARK   56  A    between atoms: _172  and  _174
REMARK   57  A    between atoms: _174  and  _175
REMARK   58  A    between atoms: _174  and  _177
REMARK   59  A    between atoms: _177  and  _178
REMARK   60  A    between atoms: _181  and  _183
REMARK   61  A    between atoms: _183  and  _184
REMARK   62  A    between atoms: _183  and  _186
REMARK   63  A    between atoms: _186  and  _187
REMARK   64  A    between atoms: _188  and  ZN_420
REMARK   65  A    between atoms: _192  and  _194
REMARK   66  A    between atoms: _194  and  _195
REMARK   67  A    between atoms: _194  and  _197
REMARK   68  A    between atoms: _197  and  _198
REMARK   69  A    between atoms: _201  and  _203
REMARK   70  A    between atoms: _203  and  _204
REMARK   71  A    between atoms: _203  and  _206
REMARK   72  A    between atoms: _209  and  _211
REMARK   73  A    between atoms: _211  and  _212
REMARK   74  A    between atoms: _211  and  _214
REMARK   75  A    between atoms: _214  and  _215
REMARK   76  A    between atoms: _220  and  _222
REMARK   77  A    between atoms: _222  and  _223
REMARK   78  A    between atoms: _222  and  _225
REMARK   79  A    between atoms: _225  and  _226
REMARK   80  A    between atoms: _232  and  _234
REMARK   81  A    between atoms: _234  and  _235
REMARK   82  A    between atoms: _237  and  _239
REMARK   83  A    between atoms: _239  and  _240
REMARK   84  A    between atoms: _239  and  _242
REMARK   85  A    between atoms: _245  and  _247
REMARK   86  A    between atoms: _247  and  _248
REMARK   87  A    between atoms: _247  and  _250
REMARK   88  A    between atoms: _250  and  _251
REMARK   89  A    between atoms: _251  and  _252
REMARK   90  A    between atoms: _257  and  _259
REMARK   91  A    between atoms: _259  and  _260
REMARK   92  A    between atoms: _259  and  _262
REMARK   93  A    between atoms: _262  and  _263
REMARK   94  A    between atoms: _266  and  _268
REMARK   95  A    between atoms: _268  and  _269
REMARK   96  A    between atoms: _272  and  _274
REMARK   97  A    between atoms: _274  and  _275
REMARK   98  A    between atoms: _274  and  _277
REMARK   99  A    between atoms: _280  and  _282
REMARK  100  A    between atoms: _282  and  _283
REMARK  101  A    between atoms: _282  and  _285
REMARK  102  A    between atoms: _285  and  _286
REMARK  103  A    between atoms: _289  and  _291
REMARK  104  A    between atoms: _291  and  _292
REMARK  105  A    between atoms: _294  and  _296
REMARK  106  A    between atoms: _296  and  _297
REMARK  107  A    between atoms: _296  and  _299
REMARK  108  A    between atoms: _299  and  _300
REMARK  109  A    between atoms: _302  and  _304
REMARK  110  A    between atoms: _304  and  _305
REMARK  111  A    between atoms: _304  and  _307
REMARK  112  A    between atoms: _307  and  _308
REMARK  113  A    between atoms: _311  and  _313
REMARK  114  A    between atoms: _313  and  _314
REMARK  115  A    between atoms: _313  and  _316
REMARK  116  A    between atoms: _316  and  _317
REMARK  117  A    between atoms: _320  and  _322
REMARK  118  A    between atoms: _322  and  _323
REMARK  119  A    between atoms: _322  and  _325
REMARK  120  A    between atoms: _325  and  _326
REMARK  121  A    between atoms: _330  and  _331
REMARK  122  A    between atoms: _337  and  _338
REMARK  123  A    between atoms: _343  and  _345
REMARK  124  A    between atoms: _345  and  _346
REMARK  125  A    between atoms: _345  and  _348
REMARK  126  A    between atoms: _348  and  _349
REMARK  127  A    between atoms: _352  and  _354
REMARK  128  A    between atoms: _354  and  _355
REMARK  129  A    between atoms: _354  and  _357
REMARK  130  A    between atoms: _357  and  _358
REMARK  131  A    between atoms: _361  and  _363
REMARK  132  A    between atoms: _363  and  _364
REMARK  133  A    between atoms: _363  and  _366
REMARK  134  A    between atoms: _368  and  _370
REMARK  135  A    between atoms: _370  and  _371
REMARK  136  A    between atoms: _370  and  _373
REMARK  137  A    between atoms: _376  and  _378
REMARK  138  A    between atoms: _378  and  _379
REMARK  139  A    between atoms: _378  and  _381
REMARK  140  A    between atoms: _381  and  _382
REMARK  141  A    between atoms: _392  and  _394
REMARK  142  A    between atoms: _394  and  _395
REMARK  143  A    between atoms: _394  and  _397
REMARK  144  A    between atoms: _397  and  _398
REMARK  145  A    between atoms: _403  and  _405
REMARK  146  A    between atoms: _405  and  _406
REMARK  147  A    between atoms: _405  and  _408
REMARK  148  A    between atoms: _408  and  _409
REMARK  149  A    between atoms: _409  and  _410
REMARK  150  A    between atoms: _410  and  _411
REMARK                            x       y       z     vdW  Elec       q    Type
REMARK                         _______ _______ _______ _____ _____    ______ ____
ROOT
ATOM      1  C   VAL A   1      -2.553  12.621  20.340  0.00  0.00    +0.238 C 
ATOM      2  N   GLN A   2      -2.768  13.821  20.868  0.00  0.00    -0.298 N 
ATOM      3  H   GLN A   2      -3.672  14.298  20.677  0.00  0.00    +0.150 HD
ATOM      4  O   VAL A   1      -1.497  12.010  20.472  0.00  0.00    -0.274 OA
ENDROOT
BRANCH   1   5
ATOM      5  CA  VAL A   1      -3.703  12.029  19.532  0.00  0.00    +0.145 C 
BRANCH   5   6
ATOM      6  CB  VAL A   1      -3.142  11.336  18.262  0.00  0.00    +0.025 C 
ATOM      7  CG2 VAL A   1      -4.256  10.593  17.555  0.00  0.00    +0.002 C 
ATOM      8  CG1 VAL A   1      -2.507  12.352  17.336  0.00  0.00    +0.002 C 
ENDBRANCH   5   6
BRANCH   5   9
ATOM      9  N   VAL A   1      -4.739  13.005  19.204  0.00  0.00    -0.238 NA
ATOM     10  H   VAL A   1      -4.799  13.383  18.237  0.00  0.00    +0.142 HD
ENDBRANCH   5   9
ENDBRANCH   1   5
BRANCH   2  11
ATOM     11  CA  GLN A   2      -1.782  14.493  21.706  0.00  0.00    +0.137 C 
BRANCH  11  12
ATOM     12  C   GLN A   2      -2.388  14.591  23.107  0.00  0.00    +0.227 C 
ATOM     13  O   GLN A   2      -1.811  15.204  24.011  0.00  0.00    -0.286 OA
ENDBRANCH  11  12
BRANCH  11  14
ATOM     14  CB  GLN A   2      -1.488  15.899  21.176  0.00  0.00    +0.037 C 
BRANCH  14  15
ATOM     15  CG  GLN A   2      -0.882  15.940  19.776  0.00  0.00    +0.087 C 
BRANCH  15  16
ATOM     16  CD  GLN A   2      -0.613  17.360  19.308  0.00  0.00    +0.219 C 
ATOM     17  OE1 GLN A   2       0.127  18.104  19.950  0.00  0.00    -0.275 OA
ATOM     18  NE2 GLN A   2      -1.214  17.743  18.187  0.00  0.00    -0.329 N 
ATOM     19 HE21 GLN A   2      -1.067  18.705  17.821  0.00  0.00    +0.145 HD
ATOM     20 HE22 GLN A   2      -1.832  17.081  17.676  0.00  0.00    +0.145 HD
ENDBRANCH  15  16
ENDBRANCH  14  15
ENDBRANCH  11  14
ENDBRANCH   2  11
TORSDOF 8
REMARK  Name = ../refined-set-2016/3ibi/3ibi_pocket.pdb
REMARK  150 active torsions:
REMARK  status: ('A' for Active; 'I' for Inactive)
REMARK    1  A    between atoms: _1  and  _3
REMARK    2  A    between atoms: _3  and  _4
REMARK    3  A    between atoms: _3  and  _6
REMARK    4  A    between atoms: _6  and  _7
REMARK    5  A    between atoms: _17  and  _19
REMARK    6  A    between atoms: _19  and  _20
REMARK    7  A    between atoms: _19  and  _22
REMARK    8  A    between atoms: _22  and  _23
REMARK    9  A    between atoms: _28  and  _29
REMARK   10  A    between atoms: _31  and  _33
REMARK   11  A    between atoms: _33  and  _34
REMARK   12  A    between atoms: _33  and  _36
REMARK   13  A    between atoms: _36  and  _37
REMARK   14  A    between atoms: _40  and  _41
REMARK   15  A    between atoms: _46  and  _48
REMARK   16  A    between atoms: _48  and  _49
REMARK   17  A    between atoms: _48  and  _51
REMARK   18  A    between atoms: _51  and  _52
REMARK   19  A    between atoms: _57  and  _59
REMARK   20  A    between atoms: _59  and  _60
REMARK   21  A    between atoms: _63  and  _65
REMARK   22  A    between atoms: _65  and  _66
REMARK   23  A    between atoms: _65  and  _68
REMARK   24  A    between atoms: _68  and  _69
REMARK   25  A    between atoms: _74  and  _76
REMARK   26  A    between atoms: _76  and  _77
REMARK   27  A    between atoms: _76  and  _79
REMARK   28  A    between atoms: _79  and  _80
REMARK   29  A    between atoms: _83  and  _85
REMARK   30  A    between atoms: _85  and  _86
REMARK   31  A    between atoms: _85  and  _88
REMARK   32  A    between atoms: _88  and  _89
REMARK   33  A    between atoms: _89  and  _90
REMARK   34  A    between atoms: _95  and  _97
REMARK   35  A    between atoms: _97  and  _98
REMARK   36  A    between atoms: _97  and  _100
REMARK   37  A    between atoms: _100  and  _101
REMARK   38  A    between atoms: _107  and  _109
REMARK   39  A    between atoms: _120  and  _123
REMARK   40  A    between atoms: _123  and  _124
REMARK   41  A    between atoms: _132  and  _133
REMARK   42  A    between atoms: _141  and  _143
REMARK   43  A    between atoms: _143  and  _144
REMARK   44  A    between atoms: _143  and  _146
REMARK   45  A    between atoms: _146  and  _147
REMARK   46  A    between atoms: _147  and  _148
REMARK   47  A    between atoms: _151  and  _153
REMARK   48  A    between atoms: _153  and  _154
REMARK   49  A    between atoms: _153  and  _156
REMARK   50  A    between atoms: _156  and  _157
REMARK   51  A    between atoms: _162  and  _164
REMARK   52  A    between atoms: _164  and  _165
REMARK   53  A    between atoms: _164  and  _167
REMARK   54  A    between atoms: _167  and  _168
REMARK   55  A    between atoms: _168  and  _169
REMARK   56  A    between atoms: _172  and  _174
REMARK   57  A    between atoms: _174  and  _175
REMARK   58  A    between atoms: _174  and  _177
REMARK   59  A    between atoms: _177  and  _178
REMARK   60  A    between atoms: _181  and  _183
REMARK   61  A    between atoms: _183  and  _184
REMARK   62  A    between atoms: _183  and  _186
REMARK   63  A    between atoms: _186  and  _187
REMARK   64  A    between atoms: _188  and  ZN_420
REMARK   65  A    between atoms: _192  and  _194
REMARK   66  A    between atoms: _194  and  _195
REMARK   67  A    between atoms: _194  and  _197
REMARK   68  A    between atoms: _197  and  _198
REMARK   69  A    between atoms: _201  and  _203
REMARK   70  A    between atoms: _203  and  _204
REMARK   71  A    between atoms: _203  and  _206
REMARK   72  A    between atoms: _209  and  _211
REMARK   73  A    between atoms: _211  and  _212
REMARK   74  A    between atoms: _211  and  _214
REMARK   75  A    between atoms: _214  and  _215
REMARK   76  A    between atoms: _220  and  _222
REMARK   77  A    between atoms: _222  and  _223
REMARK   78  A    between atoms: _222  and  _225
REMARK   79  A    between atoms: _225  and  _226
REMARK   80  A    between atoms: _232  and  _234
REMARK   81  A    between atoms: _234  and  _235
REMARK   82  A    between atoms: _237  and  _239
REMARK   83  A    between atoms: _239  and  _240
REMARK   84  A    between atoms: _239  and  _242
REMARK   85  A    between atoms: _245  and  _247
REMARK   86  A    between atoms: _247  and  _248
REMARK   87  A    between atoms: _247  and  _250
REMARK   88  A    between atoms: _250  and  _251
REMARK   89  A    between atoms: _251  and  _252
REMARK   90  A    between atoms: _257  and  _259
REMARK   91  A    between atoms: _259  and  _260
REMARK   92  A    between atoms: _259  and  _262
REMARK   93  A    between atoms: _262  and  _263
REMARK   94  A    between atoms: _266  and  _268
REMARK   95  A    between atoms: _268  and  _269
REMARK   96  A    between atoms: _272  and  _274
REMARK   97  A    between atoms: _274  and  _275
REMARK   98  A    between atoms: _274  and  _277
REMARK   99  A    between atoms: _280  and  _282
REMARK  100  A    between atoms: _282  and  _283
REMARK  101  A    between atoms: _282  and  _285
REMARK  102  A    between atoms: _285  and  _286
REMARK  103  A    between atoms: _289  and  _291
REMARK  104  A    between atoms: _291  and  _292
REMARK  105  A    between atoms: _294  and  _296
REMARK  106  A    between atoms: _296  and  _297
REMARK  107  A    between atoms: _296  and  _299
REMARK  108  A    between atoms: _299  and  _300
REMARK  109  A    between atoms: _302  and  _304
REMARK  110  A    between atoms: _304  and  _305
REMARK  111  A    between atoms: _304  and  _307
REMARK  112  A    between atoms: _307  and  _308
REMARK  113  A    between atoms: _311  and  _313
REMARK  114  A    between atoms: _313  and  _314
REMARK  115  A    between atoms: _313  and  _316
REMARK  116  A    between atoms: _316  and  _317
REMARK  117  A    between atoms: _320  and  _322
REMARK  118  A    between atoms: _322  and  _323
REMARK  119  A    between atoms: _322  and  _325
REMARK  120  A    between atoms: _325  and  _326
REMARK  121  A    between atoms: _330  and  _331
REMARK  122  A    between atoms: _337  and  _338
REMARK  123  A    between atoms: _343  and  _345
REMARK  124  A    between atoms: _345  and  _346
REMARK  125  A    between atoms: _345  and  _348
REMARK  126  A    between atoms: _348  and  _349
REMARK  127  A    between atoms: _352  and  _354
REMARK  128  A    between atoms: _354  and  _355
REMARK  129  A    between atoms: _354  and  _357
REMARK  130  A    between atoms: _357  and  _358
REMARK  131  A    between atoms: _361  and  _363
REMARK  132  A    between atoms: _363  and  _364
REMARK  133  A    between atoms: _363  and  _366
REMARK  134  A    between atoms: _368  and  _370
REMARK  135  A    between atoms: _370  and  _371
REMARK  136  A    between atoms: _370  and  _373
REMARK  137  A    between atoms: _376  and  _378
REMARK  138  A    between atoms: _378  and  _379
REMARK  139  A    between atoms: _378  and  _381
REMARK  140  A    between atoms: _381  and  _382
REMARK  141  A    between atoms: _392  and  _394
REMARK  142  A    between atoms: _394  and  _395
REMARK  143  A    between atoms: _394  and  _397
REMARK  144  A    between atoms: _397  and  _398
REMARK  145  A    between atoms: _403  and  _405
REMARK  146  A    between atoms: _405  and  _406
REMARK  147  A    between atoms: _405  and  _408
REMARK  148  A    between atoms: _408  and  _409
REMARK  149  A    between atoms: _409  and  _410
REMARK  150  A    between atoms: _410  and  _411
REMARK                            x       y       z     vdW  Elec       q    Type
REMARK                         _______ _______ _______ _____ _____    ______ ____
ROOT
ATOM      1  C   ALA A   2     -12.134   4.985  20.656  0.00  0.00    +0.241 C 
ATOM      2  N   VAL A   3     -11.719   3.757  20.933  0.00  0.00    -0.297 N 
ATOM      3  H   VAL A   3     -11.341   3.534  21.876  0.00  0.00    +0.150 HD
ATOM      4  O   ALA A   2     -12.538   5.311  19.539  0.00  0.00    -0.273 OA
ENDROOT
BRANCH   1   5
ATOM      5  CA  ALA A   2     -12.040   6.006  21.780  0.00  0.00    +0.149 C 
ATOM      6  CB  ALA A   2     -13.429   6.549  22.125  0.00  0.00    +0.031 C 
BRANCH   5   9
ATOM      7  C   LEU A   1     -10.255   7.663  21.987  0.00  0.00    +0.238 C 
ATOM      8  O   LEU A   1     -10.070   7.427  23.184  0.00  0.00    -0.274 OA
ATOM      9  N   ALA A   2     -11.183   7.058  21.254  0.00  0.00    -0.297 N 
ATOM     10  H   ALA A   2     -11.302   7.348  20.262  0.00  0.00    +0.150 HD
BRANCH   7  11
ATOM     11  CA  LEU A   1      -9.420   8.686  21.235  0.00  0.00    +0.145 C 
BRANCH  11  12
ATOM     12  N   LEU A   1      -8.761   9.694  22.055  0.00  0.00    -0.238 NA
ATOM     13  H   LEU A   1      -8.150   9.401  22.844  0.00  0.00    +0.142 HD
ENDBRANCH  11  12
BRANCH  11  14
ATOM     14  CB  LEU A   1      -8.376   7.931  20.407  0.00  0.00    +0.026 C 
BRANCH  14  15
ATOM     15  CG  LEU A   1      -7.417   8.684  19.481  0.00  0.00    +0.002 C 
ATOM     16  CD2 LEU A   1      -6.501   7.668  18.812  0.00  0.00    +0.000 C 
ATOM     17  CD1 LEU A   1      -8.180   9.481  18.425  0.00  0.00    +0.000 C 
ENDBRANCH  14  15
ENDBRANCH  11  14
ENDBRANCH   7  11
ENDBRANCH   5   9
ENDBRANCH   1   5
BRANCH   2  18
ATOM     18  CA  VAL A   3     -11.794   2.726  19.915  0.00  0.00    +0.149 C 
BRANCH  18  19
ATOM     19  C   VAL A   3     -12.756   1.641  20.363  0.00  0.00    +0.241 C 
ATOM     20  O   VAL A   3     -12.622   1.078  21.454  0.00  0.00    -0.273 OA
ATOM     21  N   LEU A   4     -13.750   1.381  19.524  0.00  0.00    -0.298 N 
ATOM     22  H   LEU A   4     -13.823   1.928  18.642  0.00  0.00    +0.150 HD
BRANCH  21  23
ATOM     23  CA  LEU A   4     -14.741   0.353  19.802  0.00  0.00    +0.137 C 
BRANCH  23  24
ATOM     24  C   LEU A   4     -14.234  -0.925  19.149  0.00  0.00    +0.227 C 
ATOM     25  O   LEU A   4     -14.124  -0.999  17.926  0.00  0.00    -0.286 OA
ENDBRANCH  23  24
BRANCH  23  26
ATOM     26  CB  LEU A   4     -16.097   0.746  19.207  0.00  0.00    +0.028 C 
BRANCH  26  27
ATOM     27  CG  LEU A   4     -17.245  -0.245  19.407  0.00  0.00    +0.002 C 
ATOM     28  CD2 LEU A   4     -17.496  -0.437  20.904  0.00  0.00    +0.000 C 
ATOM     29  CD1 LEU A   4     -18.499   0.265  18.708  0.00  0.00    +0.000 C 
ENDBRANCH  26  27
ENDBRANCH  23  26
ENDBRANCH  21  23
ENDBRANCH  18  19
BRANCH  18  30
ATOM     30  CB  VAL A   3     -10.416   2.098  19.623  0.00  0.00    +0.027 C 
ATOM     31  CG2 VAL A   3      -9.426   3.188  19.202  0.00  0.00    +0.002 C 
ATOM     32  CG1 VAL A   3     -10.551   1.053  18.513  0.00  0.00    +0.002 C 
ENDBRANCH  18  30
ENDBRANCH   2  18
TORSDOF 13
REMARK  Name = ../refined-set-2016/3ibi/3ibi_pocket.pdb
REMARK  150 active torsions:
REMARK  status: ('A' for Active; 'I' for Inactive)
REMARK    1  A    between atoms: _1  and  _3
REMARK    2  A    between atoms: _3  and  _4
REMARK    3  A    between atoms: _3  and  _6
REMARK    4  A    between atoms: _6  and  _7
REMARK    5  A    between atoms: _17  and  _19
REMARK    6  A    between atoms: _19  and  _20
REMARK    7  A    between atoms: _19  and  _22
REMARK    8  A    between atoms: _22  and  _23
REMARK    9  A    between atoms: _28  and  _29
REMARK   10  A    between atoms: _31  and  _33
REMARK   11  A    between atoms: _33  and  _34
REMARK   12  A    between atoms: _33  and  _36
REMARK   13  A    between atoms: _36  and  _37
REMARK   14  A    between atoms: _40  and  _41
REMARK   15  A    between atoms: _46  and  _48
REMARK   16  A    between atoms: _48  and  _49
REMARK   17  A    between atoms: _48  and  _51
REMARK   18  A    between atoms: _51  and  _52
REMARK   19  A    between atoms: _57  and  _59
REMARK   20  A    between atoms: _59  and  _60
REMARK   21  A    between atoms: _63  and  _65
REMARK   22  A    between atoms: _65  and  _66
REMARK   23  A    between atoms: _65  and  _68
REMARK   24  A    between atoms: _68  and  _69
REMARK   25  A    between atoms: _74  and  _76
REMARK   26  A    between atoms: _76  and  _77
REMARK   27  A    between atoms: _76  and  _79
REMARK   28  A    between atoms: _79  and  _80
REMARK   29  A    between atoms: _83  and  _85
REMARK   30  A    between atoms: _85  and  _86
REMARK   31  A    between atoms: _85  and  _88
REMARK   32  A    between atoms: _88  and  _89
REMARK   33  A    between atoms: _89  and  _90
REMARK   34  A    between atoms: _95  and  _97
REMARK   35  A    between atoms: _97  and  _98
REMARK   36  A    between atoms: _97  and  _100
REMARK   37  A    between atoms: _100  and  _101
REMARK   38  A    between atoms: _107  and  _109
REMARK   39  A    between atoms: _120  and  _123
REMARK   40  A    between atoms: _123  and  _124
REMARK   41  A    between atoms: _132  and  _133
REMARK   42  A    between atoms: _141  and  _143
REMARK   43  A    between atoms: _143  and  _144
REMARK   44  A    between atoms: _143  and  _146
REMARK   45  A    between atoms: _146  and  _147
REMARK   46  A    between atoms: _147  and  _148
REMARK   47  A    between atoms: _151  and  _153
REMARK   48  A    between atoms: _153  and  _154
REMARK   49  A    between atoms: _153  and  _156
REMARK   50  A    between atoms: _156  and  _157
REMARK   51  A    between atoms: _162  and  _164
REMARK   52  A    between atoms: _164  and  _165
REMARK   53  A    between atoms: _164  and  _167
REMARK   54  A    between atoms: _167  and  _168
REMARK   55  A    between atoms: _168  and  _169
REMARK   56  A    between atoms: _172  and  _174
REMARK   57  A    between atoms: _174  and  _175
REMARK   58  A    between atoms: _174  and  _177
REMARK   59  A    between atoms: _177  and  _178
REMARK   60  A    between atoms: _181  and  _183
REMARK   61  A    between atoms: _183  and  _184
REMARK   62  A    between atoms: _183  and  _186
REMARK   63  A    between atoms: _186  and  _187
REMARK   64  A    between atoms: _188  and  ZN_420
REMARK   65  A    between atoms: _192  and  _194
REMARK   66  A    between atoms: _194  and  _195
REMARK   67  A    between atoms: _194  and  _197
REMARK   68  A    between atoms: _197  and  _198
REMARK   69  A    between atoms: _201  and  _203
REMARK   70  A    between atoms: _203  and  _204
REMARK   71  A    between atoms: _203  and  _206
REMARK   72  A    between atoms: _209  and  _211
REMARK   73  A    between atoms: _211  and  _212
REMARK   74  A    between atoms: _211  and  _214
REMARK   75  A    between atoms: _214  and  _215
REMARK   76  A    between atoms: _220  and  _222
REMARK   77  A    between atoms: _222  and  _223
REMARK   78  A    between atoms: _222  and  _225
REMARK   79  A    between atoms: _225  and  _226
REMARK   80  A    between atoms: _232  and  _234
REMARK   81  A    between atoms: _234  and  _235
REMARK   82  A    between atoms: _237  and  _239
REMARK   83  A    between atoms: _239  and  _240
REMARK   84  A    between atoms: _239  and  _242
REMARK   85  A    between atoms: _245  and  _247
REMARK   86  A    between atoms: _247  and  _248
REMARK   87  A    between atoms: _247  and  _250
REMARK   88  A    between atoms: _250  and  _251
REMARK   89  A    between atoms: _251  and  _252
REMARK   90  A    between atoms: _257  and  _259
REMARK   91  A    between atoms: _259  and  _260
REMARK   92  A    between atoms: _259  and  _262
REMARK   93  A    between atoms: _262  and  _263
REMARK   94  A    between atoms: _266  and  _268
REMARK   95  A    between atoms: _268  and  _269
REMARK   96  A    between atoms: _272  and  _274
REMARK   97  A    between atoms: _274  and  _275
REMARK   98  A    between atoms: _274  and  _277
REMARK   99  A    between atoms: _280  and  _282
REMARK  100  A    between atoms: _282  and  _283
REMARK  101  A    between atoms: _282  and  _285
REMARK  102  A    between atoms: _285  and  _286
REMARK  103  A    between atoms: _289  and  _291
REMARK  104  A    between atoms: _291  and  _292
REMARK  105  A    between atoms: _294  and  _296
REMARK  106  A    between atoms: _296  and  _297
REMARK  107  A    between atoms: _296  and  _299
REMARK  108  A    between atoms: _299  and  _300
REMARK  109  A    between atoms: _302  and  _304
REMARK  110  A    between atoms: _304  and  _305
REMARK  111  A    between atoms: _304  and  _307
REMARK  112  A    between atoms: _307  and  _308
REMARK  113  A    between atoms: _311  and  _313
REMARK  114  A    between atoms: _313  and  _314
REMARK  115  A    between atoms: _313  and  _316
REMARK  116  A    between atoms: _316  and  _317
REMARK  117  A    between atoms: _320  and  _322
REMARK  118  A    between atoms: _322  and  _323
REMARK  119  A    between atoms: _322  and  _325
REMARK  120  A    between atoms: _325  and  _326
REMARK  121  A    between atoms: _330  and  _331
REMARK  122  A    between atoms: _337  and  _338
REMARK  123  A    between atoms: _343  and  _345
REMARK  124  A    between atoms: _345  and  _346
REMARK  125  A    between atoms: _345  and  _348
REMARK  126  A    between atoms: _348  and  _349
REMARK  127  A    between atoms: _352  and  _354
REMARK  128  A    between atoms: _354  and  _355
REMARK  129  A    between atoms: _354  and  _357
REMARK  130  A    between atoms: _357  and  _358
REMARK  131  A    between atoms: _361  and  _363
REMARK  132  A    between atoms: _363  and  _364
REMARK  133  A    between atoms: _363  and  _366
REMARK  134  A    between atoms: _368  and  _370
REMARK  135  A    between atoms: _370  and  _371
REMARK  136  A    between atoms: _370  and  _373
REMARK  137  A    between atoms: _376  and  _378
REMARK  138  A    between atoms: _378  and  _379
REMARK  139  A    between atoms: _378  and  _381
REMARK  140  A    between atoms: _381  and  _382
REMARK  141  A    between atoms: _392  and  _394
REMARK  142  A    between atoms: _394  and  _395
REMARK  143  A    between atoms: _394  and  _397
REMARK  144  A    between atoms: _397  and  _398
REMARK  145  A    between atoms: _403  and  _405
REMARK  146  A    between atoms: _405  and  _406
REMARK  147  A    between atoms: _405  and  _408
REMARK  148  A    between atoms: _408  and  _409
REMARK  149  A    between atoms: _409  and  _410
REMARK  150  A    between atoms: _410  and  _411
REMARK                            x       y       z     vdW  Elec       q    Type
REMARK                         _______ _______ _______ _____ _____    ______ ____
ROOT
ATOM      1  CA  THR A   5       0.143  -0.075  15.925  0.00  0.00    +0.176 C 
ENDROOT
BRANCH   1   2
ATOM      2  C   THR A   5       0.976   1.172  16.156  0.00  0.00    +0.246 C 
ATOM      3  O   THR A   5       0.512   2.131  16.780  0.00  0.00    -0.273 OA
ATOM      4  N   PRO A   6       2.233   1.169  15.690  0.00  0.00    -0.272 N 
ATOM      5  CA  PRO A   6       3.039   2.375  15.893  0.00  0.00    +0.152 C 
ATOM      6  CB  PRO A   6       4.293   2.074  15.084  0.00  0.00    +0.031 C 
ATOM      7  CG  PRO A   6       4.475   0.599  15.329  0.00  0.00    +0.024 C 
ATOM      8  CD  PRO A   6       3.055   0.059  15.171  0.00  0.00    +0.094 C 
BRANCH   5   9
ATOM      9  C   PRO A   6       2.224   3.532  15.318  0.00  0.00    +0.244 C 
ATOM     10  N   PRO A   7       2.354   4.744  15.878  0.00  0.00    -0.272 N 
ATOM     11  CA  PRO A   7       3.189   5.183  16.999  0.00  0.00    +0.152 C 
ATOM     12  CB  PRO A   7       3.167   6.699  16.854  0.00  0.00    +0.031 C 
ATOM     13  CG  PRO A   7       1.772   6.951  16.404  0.00  0.00    +0.024 C 
ATOM     14  CD  PRO A   7       1.553   5.869  15.356  0.00  0.00    +0.094 C 
ATOM     15  O   PRO A   6       1.498   3.346  14.345  0.00  0.00    -0.273 OA
BRANCH  11  16
ATOM     16  C   PRO A   7       2.807   4.722  18.409  0.00  0.00    +0.241 C 
ATOM     17  O   PRO A   7       3.397   5.185  19.381  0.00  0.00    -0.273 OA
ATOM     18  N   LEU A   8       1.825   3.829  18.522  0.00  0.00    -0.297 N 
ATOM     19  H   LEU A   8       1.333   3.506  17.665  0.00  0.00    +0.150 HD
BRANCH  18  20
ATOM     20  CA  LEU A   8       1.419   3.289  19.827  0.00  0.00    +0.149 C 
BRANCH  20  21
ATOM     21  C   LEU A   8       1.118   4.356  20.889  0.00  0.00    +0.241 C 
ATOM     22  O   LEU A   8       1.406   4.163  22.071  0.00  0.00    -0.273 OA
ATOM     23  N   LEU A   9       0.524   5.468  20.473  0.00  0.00    -0.298 N 
ATOM     24  H   LEU A   9       0.273   5.565  19.468  0.00  0.00    +0.150 HD
BRANCH  23  25
ATOM     25  CA  LEU A   9       0.215   6.557  21.393  0.00  0.00    +0.137 C 
BRANCH  25  26
ATOM     26  C   LEU A   9      -0.809   6.151  22.453  0.00  0.00    +0.227 C 
ATOM     27  O   LEU A   9      -1.800   5.482  22.158  0.00  0.00    -0.286 OA
ENDBRANCH  25  26
BRANCH  25  28
ATOM     28  CB  LEU A   9      -0.283   7.766  20.595  0.00  0.00    +0.028 C 
BRANCH  28  29
ATOM     29  CG  LEU A   9       0.697   8.193  19.492  0.00  0.00    +0.002 C 
ATOM     30  CD2 LEU A   9       1.944   8.772  20.138  0.00  0.00    +0.000 C 
ATOM     31  CD1 LEU A   9       0.046   9.204  18.557  0.00  0.00    +0.000 C 
ENDBRANCH  28  29
ENDBRANCH  25  28
ENDBRANCH  23  25
ENDBRANCH  20  21
BRANCH  20  32
ATOM     32  CB  LEU A   8       2.525   2.362  20.348  0.00  0.00    +0.029 C 
BRANCH  32  33
ATOM     33  CG  LEU A   8       2.964   1.218  19.424  0.00  0.00    +0.002 C 
ATOM     34  CD2 LEU A   8       4.257   0.588  19.935  0.00  0.00    +0.000 C 
ATOM     35  CD1 LEU A   8       1.861   0.181  19.347  0.00  0.00    +0.000 C 
ENDBRANCH  32  33
ENDBRANCH  20  32
ENDBRANCH  18  20
ENDBRANCH  11  16
ENDBRANCH   5   9
ENDBRANCH   1   2
BRANCH   1  38
ATOM     36  C   THR A   4      -0.972  -1.194  17.770  0.00  0.00    +0.243 C 
ATOM     37  O   THR A   4      -0.302  -2.217  17.616  0.00  0.00    -0.273 OA
ATOM     38  N   THR A   5      -0.848  -0.126  16.991  0.00  0.00    -0.295 N 
ATOM     39  H   THR A   5      -1.472   0.692  17.145  0.00  0.00    +0.150 HD
BRANCH  36  40
ATOM     40  CA  THR A   4      -2.017  -1.105  18.880  0.00  0.00    +0.176 C 
BRANCH  40  43
ATOM     41  C   LEU A   3      -2.291   1.164  19.665  0.00  0.00    +0.241 C 
ATOM     42  O   LEU A   3      -1.276   1.065  20.361  0.00  0.00    -0.273 OA
ATOM     43  N   THR A   4      -2.730   0.170  18.903  0.00  0.00    -0.295 N 
ATOM     44  H   THR A   4      -3.583   0.299  18.322  0.00  0.00    +0.150 HD
BRANCH  41  45
ATOM     45  CA  LEU A   3      -3.086   2.466  19.659  0.00  0.00    +0.149 C 
BRANCH  45  48
ATOM     46  C   SER A   2      -3.475   2.366  22.046  0.00  0.00    +0.243 C 
ATOM     47  O   SER A   2      -4.322   1.483  21.931  0.00  0.00    -0.273 OA
ATOM     48  N   LEU A   3      -2.853   2.926  21.014  0.00  0.00    -0.297 N 
ATOM     49  H   LEU A   3      -2.188   3.708  21.181  0.00  0.00    +0.150 HD
BRANCH  46  50
ATOM     50  CA  SER A   2      -3.053   2.884  23.406  0.00  0.00    +0.178 C 
BRANCH  50  53
ATOM     51  C   GLY A   1      -4.226   2.879  25.544  0.00  0.00    +0.240 C 
ATOM     52  O   GLY A   1      -4.196   4.105  25.618  0.00  0.00    -0.274 OA
ATOM     53  N   SER A   2      -3.730   2.207  24.508  0.00  0.00    -0.295 N 
ATOM     54  H   SER A   2      -3.827   1.172  24.483  0.00  0.00    +0.150 HD
BRANCH  51  55
ATOM     55  CA  GLY A   1      -4.858   2.043  26.640  0.00  0.00    +0.169 C 
BRANCH  55  56
ATOM     56  N   GLY A   1      -5.955   2.674  27.357  0.00  0.00    -0.236 NA
ATOM     57  H   GLY A   1      -6.582   3.340  26.863  0.00  0.00    +0.142 HD
ENDBRANCH  55  56
ENDBRANCH  51  55
ENDBRANCH  50  53
BRANCH  50  58
ATOM     58  CB  SER A   2      -1.546   2.652  23.510  0.00  0.00    +0.166 C 
BRANCH  58  59
ATOM     59  OG  SER A   2      -1.258   1.283  23.246  0.00  0.00    -0.380 OA
ATOM     60  H   SER A   2      -1.566   1.052  22.334  0.00  0.00    +0.211 HD
ENDBRANCH  58  59
ENDBRANCH  50  58
ENDBRANCH  46  50
ENDBRANCH  45  48
BRANCH  45  61
ATOM     61  CB  LEU A   3      -2.467   3.428  18.653  0.00  0.00    +0.029 C 
BRANCH  61  62
ATOM     62  CG  LEU A   3      -2.972   4.868  18.633  0.00  0.00    +0.002 C 
ATOM     63  CD2 LEU A   3      -4.427   4.877  18.204  0.00  0.00    +0.000 C 
ATOM     64  CD1 LEU A   3      -2.117   5.700  17.678  0.00  0.00    +0.000 C 
ENDBRANCH  61  62
ENDBRANCH  45  61
ENDBRANCH  41  45
ENDBRANCH  40  43
BRANCH  40  65
ATOM     65  CB  THR A   4      -2.989  -2.271  18.735  0.00  0.00    +0.137 C 
ATOM     66  CG2 THR A   4      -4.047  -2.205  19.826  0.00  0.00    +0.034 C 
BRANCH  65  67
ATOM     67  OG1 THR A   4      -3.612  -2.211  17.449  0.00  0.00    -0.382 OA
ATOM     68  HG1 THR A   4      -4.243  -2.968  17.354  0.00  0.00    +0.210 HD
ENDBRANCH  65  67
ENDBRANCH  40  65
ENDBRANCH  36  40
ENDBRANCH   1  38
BRANCH   1  69
ATOM     69  CB  THR A   5      -0.507   0.049  14.526  0.00  0.00    +0.137 C 
ATOM     70  CG2 THR A   5      -1.542  -1.039  14.316  0.00  0.00    +0.034 C 
BRANCH  69  71
ATOM     71  OG1 THR A   5      -1.144   1.326  14.404  0.00  0.00    -0.382 OA
ATOM     72  HG1 THR A   5      -1.559   1.402  13.508  0.00  0.00    +0.210 HD
ENDBRANCH  69  71
ENDBRANCH   1  69
TORSDOF 28
REMARK  Name = ../refined-set-2016/3ibi/3ibi_pocket.pdb
REMARK  150 active torsions:
REMARK  status: ('A' for Active; 'I' for Inactive)
REMARK    1  A    between atoms: _1  and  _3
REMARK    2  A    between atoms: _3  and  _4
REMARK    3  A    between atoms: _3  and  _6
REMARK    4  A    between atoms: _6  and  _7
REMARK    5  A    between atoms: _17  and  _19
REMARK    6  A    between atoms: _19  and  _20
REMARK    7  A    between atoms: _19  and  _22
REMARK    8  A    between atoms: _22  and  _23
REMARK    9  A    between atoms: _28  and  _29
REMARK   10  A    between atoms: _31  and  _33
REMARK   11  A    between atoms: _33  and  _34
REMARK   12  A    between atoms: _33  and  _36
REMARK   13  A    between atoms: _36  and  _37
REMARK   14  A    between atoms: _40  and  _41
REMARK   15  A    between atoms: _46  and  _48
REMARK   16  A    between atoms: _48  and  _49
REMARK   17  A    between atoms: _48  and  _51
REMARK   18  A    between atoms: _51  and  _52
REMARK   19  A    between atoms: _57  and  _59
REMARK   20  A    between atoms: _59  and  _60
REMARK   21  A    between atoms: _63  and  _65
REMARK   22  A    between atoms: _65  and  _66
REMARK   23  A    between atoms: _65  and  _68
REMARK   24  A    between atoms: _68  and  _69
REMARK   25  A    between atoms: _74  and  _76
REMARK   26  A    between atoms: _76  and  _77
REMARK   27  A    between atoms: _76  and  _79
REMARK   28  A    between atoms: _79  and  _80
REMARK   29  A    between atoms: _83  and  _85
REMARK   30  A    between atoms: _85  and  _86
REMARK   31  A    between atoms: _85  and  _88
REMARK   32  A    between atoms: _88  and  _89
REMARK   33  A    between atoms: _89  and  _90
REMARK   34  A    between atoms: _95  and  _97
REMARK   35  A    between atoms: _97  and  _98
REMARK   36  A    between atoms: _97  and  _100
REMARK   37  A    between atoms: _100  and  _101
REMARK   38  A    between atoms: _107  and  _109
REMARK   39  A    between atoms: _120  and  _123
REMARK   40  A    between atoms: _123  and  _124
REMARK   41  A    between atoms: _132  and  _133
REMARK   42  A    between atoms: _141  and  _143
REMARK   43  A    between atoms: _143  and  _144
REMARK   44  A    between atoms: _143  and  _146
REMARK   45  A    between atoms: _146  and  _147
REMARK   46  A    between atoms: _147  and  _148
REMARK   47  A    between atoms: _151  and  _153
REMARK   48  A    between atoms: _153  and  _154
REMARK   49  A    between atoms: _153  and  _156
REMARK   50  A    between atoms: _156  and  _157
REMARK   51  A    between atoms: _162  and  _164
REMARK   52  A    between atoms: _164  and  _165
REMARK   53  A    between atoms: _164  and  _167
REMARK   54  A    between atoms: _167  and  _168
REMARK   55  A    between atoms: _168  and  _169
REMARK   56  A    between atoms: _172  and  _174
REMARK   57  A    between atoms: _174  and  _175
REMARK   58  A    between atoms: _174  and  _177
REMARK   59  A    between atoms: _177  and  _178
REMARK   60  A    between atoms: _181  and  _183
REMARK   61  A    between atoms: _183  and  _184
REMARK   62  A    between atoms: _183  and  _186
REMARK   63  A    between atoms: _186  and  _187
REMARK   64  A    between atoms: _188  and  ZN_420
REMARK   65  A    between atoms: _192  and  _194
REMARK   66  A    between atoms: _194  and  _195
REMARK   67  A    between atoms: _194  and  _197
REMARK   68  A    between atoms: _197  and  _198
REMARK   69  A    between atoms: _201  and  _203
REMARK   70  A    between atoms: _203  and  _204
REMARK   71  A    between atoms: _203  and  _206
REMARK   72  A    between atoms: _209  and  _211
REMARK   73  A    between atoms: _211  and  _212
REMARK   74  A    between atoms: _211  and  _214
REMARK   75  A    between atoms: _214  and  _215
REMARK   76  A    between atoms: _220  and  _222
REMARK   77  A    between atoms: _222  and  _223
REMARK   78  A    between atoms: _222  and  _225
REMARK   79  A    between atoms: _225  and  _226
REMARK   80  A    between atoms: _232  and  _234
REMARK   81  A    between atoms: _234  and  _235
REMARK   82  A    between atoms: _237  and  _239
REMARK   83  A    between atoms: _239  and  _240
REMARK   84  A    between atoms: _239  and  _242
REMARK   85  A    between atoms: _245  and  _247
REMARK   86  A    between atoms: _247  and  _248
REMARK   87  A    between atoms: _247  and  _250
REMARK   88  A    between atoms: _250  and  _251
REMARK   89  A    between atoms: _251  and  _252
REMARK   90  A    between atoms: _257  and  _259
REMARK   91  A    between atoms: _259  and  _260
REMARK   92  A    between atoms: _259  and  _262
REMARK   93  A    between atoms: _262  and  _263
REMARK   94  A    between atoms: _266  and  _268
REMARK   95  A    between atoms: _268  and  _269
REMARK   96  A    between atoms: _272  and  _274
REMARK   97  A    between atoms: _274  and  _275
REMARK   98  A    between atoms: _274  and  _277
REMARK   99  A    between atoms: _280  and  _282
REMARK  100  A    between atoms: _282  and  _283
REMARK  101  A    between atoms: _282  and  _285
REMARK  102  A    between atoms: _285  and  _286
REMARK  103  A    between atoms: _289  and  _291
REMARK  104  A    between atoms: _291  and  _292
REMARK  105  A    between atoms: _294  and  _296
REMARK  106  A    between atoms: _296  and  _297
REMARK  107  A    between atoms: _296  and  _299
REMARK  108  A    between atoms: _299  and  _300
REMARK  109  A    between atoms: _302  and  _304
REMARK  110  A    between atoms: _304  and  _305
REMARK  111  A    between atoms: _304  and  _307
REMARK  112  A    between atoms: _307  and  _308
REMARK  113  A    between atoms: _311  and  _313
REMARK  114  A    between atoms: _313  and  _314
REMARK  115  A    between atoms: _313  and  _316
REMARK  116  A    between atoms: _316  and  _317
REMARK  117  A    between atoms: _320  and  _322
REMARK  118  A    between atoms: _322  and  _323
REMARK  119  A    between atoms: _322  and  _325
REMARK  120  A    between atoms: _325  and  _326
REMARK  121  A    between atoms: _330  and  _331
REMARK  122  A    between atoms: _337  and  _338
REMARK  123  A    between atoms: _343  and  _345
REMARK  124  A    between atoms: _345  and  _346
REMARK  125  A    between atoms: _345  and  _348
REMARK  126  A    between atoms: _348  and  _349
REMARK  127  A    between atoms: _352  and  _354
REMARK  128  A    between atoms: _354  and  _355
REMARK  129  A    between atoms: _354  and  _357
REMARK  130  A    between atoms: _357  and  _358
REMARK  131  A    between atoms: _361  and  _363
REMARK  132  A    between atoms: _363  and  _364
REMARK  133  A    between atoms: _363  and  _366
REMARK  134  A    between atoms: _368  and  _370
REMARK  135  A    between atoms: _370  and  _371
REMARK  136  A    between atoms: _370  and  _373
REMARK  137  A    between atoms: _376  and  _378
REMARK  138  A    between atoms: _378  and  _379
REMARK  139  A    between atoms: _378  and  _381
REMARK  140  A    between atoms: _381  and  _382
REMARK  141  A    between atoms: _392  and  _394
REMARK  142  A    between atoms: _394  and  _395
REMARK  143  A    between atoms: _394  and  _397
REMARK  144  A    between atoms: _397  and  _398
REMARK  145  A    between atoms: _403  and  _405
REMARK  146  A    between atoms: _405  and  _406
REMARK  147  A    between atoms: _405  and  _408
REMARK  148  A    between atoms: _408  and  _409
REMARK  149  A    between atoms: _409  and  _410
REMARK  150  A    between atoms: _410  and  _411
REMARK                            x       y       z     vdW  Elec       q    Type
REMARK                         _______ _______ _______ _____ _____    ______ ____
ROOT
ATOM      1  C   CYS A   1      -5.904   7.666  23.899  0.00  0.00    +0.239 C 
ATOM      2  N   VAL A   2      -5.928   6.346  24.064  0.00  0.00    -0.298 N 
ATOM      3  H   VAL A   2      -5.054   5.846  24.323  0.00  0.00    +0.150 HD
ATOM      4  O   CYS A   1      -6.925   8.330  23.725  0.00  0.00    -0.274 OA
ENDROOT
BRANCH   1   5
ATOM      5  CA  CYS A   1      -4.537   8.361  23.963  0.00  0.00    +0.156 C 
BRANCH   5   6
ATOM      6  N   CYS A   1      -3.456   7.372  23.970  0.00  0.00    -0.237 NA
ATOM      7  H   CYS A   1      -3.388   6.704  23.176  0.00  0.00    +0.142 HD
ENDBRANCH   5   6
BRANCH   5   8
ATOM      8  CB  CYS A   1      -4.427   9.252  22.711  0.00  0.00    +0.095 C 
ATOM      9  SG  CYS A   1      -2.748   9.756  22.192  0.00  0.00    -0.080 S 
ENDBRANCH   5   8
ENDBRANCH   1   5
BRANCH   2  10
ATOM     10  CA  VAL A   2      -7.165   5.590  23.887  0.00  0.00    +0.137 C 
BRANCH  10  11
ATOM     11  CB  VAL A   2      -6.915   4.398  22.930  0.00  0.00    +0.026 C 
ATOM     12  CG2 VAL A   2      -8.232   3.723  22.572  0.00  0.00    +0.002 C 
ATOM     13  CG1 VAL A   2      -6.187   4.870  21.688  0.00  0.00    +0.002 C 
ENDBRANCH  10  11
BRANCH  10  14
ATOM     14  C   VAL A   2      -7.977   5.021  25.040  0.00  0.00    +0.227 C 
ATOM     15  O   VAL A   2      -7.451   4.376  25.941  0.00  0.00    -0.286 OA
ENDBRANCH  10  14
ENDBRANCH   2  10
TORSDOF 6
REMARK  Name = ../refined-set-2016/3ibi/3ibi_pocket.pdb
REMARK  150 active torsions:
REMARK  status: ('A' for Active; 'I' for Inactive)
REMARK    1  A    between atoms: _1  and  _3
REMARK    2  A    between atoms: _3  and  _4
REMARK    3  A    between atoms: _3  and  _6
REMARK    4  A    between atoms: _6  and  _7
REMARK    5  A    between atoms: _17  and  _19
REMARK    6  A    between atoms: _19  and  _20
REMARK    7  A    between atoms: _19  and  _22
REMARK    8  A    between atoms: _22  and  _23
REMARK    9  A    between atoms: _28  and  _29
REMARK   10  A    between atoms: _31  and  _33
REMARK   11  A    between atoms: _33  and  _34
REMARK   12  A    between atoms: _33  and  _36
REMARK   13  A    between atoms: _36  and  _37
REMARK   14  A    between atoms: _40  and  _41
REMARK   15  A    between atoms: _46  and  _48
REMARK   16  A    between atoms: _48  and  _49
REMARK   17  A    between atoms: _48  and  _51
REMARK   18  A    between atoms: _51  and  _52
REMARK   19  A    between atoms: _57  and  _59
REMARK   20  A    between atoms: _59  and  _60
REMARK   21  A    between atoms: _63  and  _65
REMARK   22  A    between atoms: _65  and  _66
REMARK   23  A    between atoms: _65  and  _68
REMARK   24  A    between atoms: _68  and  _69
REMARK   25  A    between atoms: _74  and  _76
REMARK   26  A    between atoms: _76  and  _77
REMARK   27  A    between atoms: _76  and  _79
REMARK   28  A    between atoms: _79  and  _80
REMARK   29  A    between atoms: _83  and  _85
REMARK   30  A    between atoms: _85  and  _86
REMARK   31  A    between atoms: _85  and  _88
REMARK   32  A    between atoms: _88  and  _89
REMARK   33  A    between atoms: _89  and  _90
REMARK   34  A    between atoms: _95  and  _97
REMARK   35  A    between atoms: _97  and  _98
REMARK   36  A    between atoms: _97  and  _100
REMARK   37  A    between atoms: _100  and  _101
REMARK   38  A    between atoms: _107  and  _109
REMARK   39  A    between atoms: _120  and  _123
REMARK   40  A    between atoms: _123  and  _124
REMARK   41  A    between atoms: _132  and  _133
REMARK   42  A    between atoms: _141  and  _143
REMARK   43  A    between atoms: _143  and  _144
REMARK   44  A    between atoms: _143  and  _146
REMARK   45  A    between atoms: _146  and  _147
REMARK   46  A    between atoms: _147  and  _148
REMARK   47  A    between atoms: _151  and  _153
REMARK   48  A    between atoms: _153  and  _154
REMARK   49  A    between atoms: _153  and  _156
REMARK   50  A    between atoms: _156  and  _157
REMARK   51  A    between atoms: _162  and  _164
REMARK   52  A    between atoms: _164  and  _165
REMARK   53  A    between atoms: _164  and  _167
REMARK   54  A    between atoms: _167  and  _168
REMARK   55  A    between atoms: _168  and  _169
REMARK   56  A    between atoms: _172  and  _174
REMARK   57  A    between atoms: _174  and  _175
REMARK   58  A    between atoms: _174  and  _177
REMARK   59  A    between atoms: _177  and  _178
REMARK   60  A    between atoms: _181  and  _183
REMARK   61  A    between atoms: _183  and  _184
REMARK   62  A    between atoms: _183  and  _186
REMARK   63  A    between atoms: _186  and  _187
REMARK   64  A    between atoms: _188  and  ZN_420
REMARK   65  A    between atoms: _192  and  _194
REMARK   66  A    between atoms: _194  and  _195
REMARK   67  A    between atoms: _194  and  _197
REMARK   68  A    between atoms: _197  and  _198
REMARK   69  A    between atoms: _201  and  _203
REMARK   70  A    between atoms: _203  and  _204
REMARK   71  A    between atoms: _203  and  _206
REMARK   72  A    between atoms: _209  and  _211
REMARK   73  A    between atoms: _211  and  _212
REMARK   74  A    between atoms: _211  and  _214
REMARK   75  A    between atoms: _214  and  _215
REMARK   76  A    between atoms: _220  and  _222
REMARK   77  A    between atoms: _222  and  _223
REMARK   78  A    between atoms: _222  and  _225
REMARK   79  A    between atoms: _225  and  _226
REMARK   80  A    between atoms: _232  and  _234
REMARK   81  A    between atoms: _234  and  _235
REMARK   82  A    between atoms: _237  and  _239
REMARK   83  A    between atoms: _239  and  _240
REMARK   84  A    between atoms: _239  and  _242
REMARK   85  A    between atoms: _245  and  _247
REMARK   86  A    between atoms: _247  and  _248
REMARK   87  A    between atoms: _247  and  _250
REMARK   88  A    between atoms: _250  and  _251
REMARK   89  A    between atoms: _251  and  _252
REMARK   90  A    between atoms: _257  and  _259
REMARK   91  A    between atoms: _259  and  _260
REMARK   92  A    between atoms: _259  and  _262
REMARK   93  A    between atoms: _262  and  _263
REMARK   94  A    between atoms: _266  and  _268
REMARK   95  A    between atoms: _268  and  _269
REMARK   96  A    between atoms: _272  and  _274
REMARK   97  A    between atoms: _274  and  _275
REMARK   98  A    between atoms: _274  and  _277
REMARK   99  A    between atoms: _280  and  _282
REMARK  100  A    between atoms: _282  and  _283
REMARK  101  A    between atoms: _282  and  _285
REMARK  102  A    between atoms: _285  and  _286
REMARK  103  A    between atoms: _289  and  _291
REMARK  104  A    between atoms: _291  and  _292
REMARK  105  A    between atoms: _294  and  _296
REMARK  106  A    between atoms: _296  and  _297
REMARK  107  A    between atoms: _296  and  _299
REMARK  108  A    between atoms: _299  and  _300
REMARK  109  A    between atoms: _302  and  _304
REMARK  110  A    between atoms: _304  and  _305
REMARK  111  A    between atoms: _304  and  _307
REMARK  112  A    between atoms: _307  and  _308
REMARK  113  A    between atoms: _311  and  _313
REMARK  114  A    between atoms: _313  and  _314
REMARK  115  A    between atoms: _313  and  _316
REMARK  116  A    between atoms: _316  and  _317
REMARK  117  A    between atoms: _320  and  _322
REMARK  118  A    between atoms: _322  and  _323
REMARK  119  A    between atoms: _322  and  _325
REMARK  120  A    between atoms: _325  and  _326
REMARK  121  A    between atoms: _330  and  _331
REMARK  122  A    between atoms: _337  and  _338
REMARK  123  A    between atoms: _343  and  _345
REMARK  124  A    between atoms: _345  and  _346
REMARK  125  A    between atoms: _345  and  _348
REMARK  126  A    between atoms: _348  and  _349
REMARK  127  A    between atoms: _352  and  _354
REMARK  128  A    between atoms: _354  and  _355
REMARK  129  A    between atoms: _354  and  _357
REMARK  130  A    between atoms: _357  and  _358
REMARK  131  A    between atoms: _361  and  _363
REMARK  132  A    between atoms: _363  and  _364
REMARK  133  A    between atoms: _363  and  _366
REMARK  134  A    between atoms: _368  and  _370
REMARK  135  A    between atoms: _370  and  _371
REMARK  136  A    between atoms: _370  and  _373
REMARK  137  A    between atoms: _376  and  _378
REMARK  138  A    between atoms: _378  and  _379
REMARK  139  A    between atoms: _378  and  _381
REMARK  140  A    between atoms: _381  and  _382
REMARK  141  A    between atoms: _392  and  _394
REMARK  142  A    between atoms: _394  and  _395
REMARK  143  A    between atoms: _394  and  _397
REMARK  144  A    between atoms: _397  and  _398
REMARK  145  A    between atoms: _403  and  _405
REMARK  146  A    between atoms: _405  and  _406
REMARK  147  A    between atoms: _405  and  _408
REMARK  148  A    between atoms: _408  and  _409
REMARK  149  A    between atoms: _409  and  _410
REMARK  150  A    between atoms: _410  and  _411
REMARK                            x       y       z     vdW  Elec       q    Type
REMARK                         _______ _______ _______ _____ _____    ______ ____
ROOT
ATOM      1  CG  TRP A   1      -8.727   0.056  23.977  0.00  0.00    -0.002 A 
ATOM      2  CD1 TRP A   1      -7.504   0.635  24.162  0.00  0.00    +0.068 A 
ATOM      3  NE1 TRP A   1      -6.773   0.576  22.998  0.00  0.00    -0.352 N 
ATOM      4  HE1 TRP A   1      -5.810   0.947  22.869  0.00  0.00    +0.166 HD
ATOM      5  CE2 TRP A   1      -7.521  -0.052  22.035  0.00  0.00    +0.056 A 
ATOM      6  CZ2 TRP A   1      -7.214  -0.347  20.705  0.00  0.00    +0.017 A 
ATOM      7  CH2 TRP A   1      -8.172  -0.991  19.961  0.00  0.00    +0.001 A 
ATOM      8  CZ3 TRP A   1      -9.416  -1.345  20.512  0.00  0.00    +0.000 A 
ATOM      9  CE3 TRP A   1      -9.721  -1.051  21.836  0.00  0.00    +0.001 A 
ATOM     10  CD2 TRP A   1      -8.760  -0.394  22.619  0.00  0.00    +0.013 A 
ENDROOT
BRANCH   1  11
ATOM     11  CB  TRP A   1      -9.835  -0.035  24.960  0.00  0.00    +0.053 C 
BRANCH  11  12
ATOM     12  CA  TRP A   1     -10.841   1.114  24.840  0.00  0.00    +0.137 C 
BRANCH  12  13
ATOM     13  N   TRP A   1     -10.372   2.293  25.540  0.00  0.00    -0.239 NA
ATOM     14  H   TRP A   1      -9.732   2.190  26.353  0.00  0.00    +0.142 HD
ENDBRANCH  12  13
BRANCH  12  15
ATOM     15  C   TRP A   1     -12.191   0.636  25.335  0.00  0.00    +0.224 C 
ATOM     16  O   TRP A   1     -12.452   0.588  26.539  0.00  0.00    -0.287 OA
ENDBRANCH  12  15
ENDBRANCH  11  12
ENDBRANCH   1  11
TORSDOF 4
REMARK  Name = ../refined-set-2016/3ibi/3ibi_pocket.pdb
REMARK  150 active torsions:
REMARK  status: ('A' for Active; 'I' for Inactive)
REMARK    1  A    between atoms: _1  and  _3
REMARK    2  A    between atoms: _3  and  _4
REMARK    3  A    between atoms: _3  and  _6
REMARK    4  A    between atoms: _6  and  _7
REMARK    5  A    between atoms: _17  and  _19
REMARK    6  A    between atoms: _19  and  _20
REMARK    7  A    between atoms: _19  and  _22
REMARK    8  A    between atoms: _22  and  _23
REMARK    9  A    between atoms: _28  and  _29
REMARK   10  A    between atoms: _31  and  _33
REMARK   11  A    between atoms: _33  and  _34
REMARK   12  A    between atoms: _33  and  _36
REMARK   13  A    between atoms: _36  and  _37
REMARK   14  A    between atoms: _40  and  _41
REMARK   15  A    between atoms: _46  and  _48
REMARK   16  A    between atoms: _48  and  _49
REMARK   17  A    between atoms: _48  and  _51
REMARK   18  A    between atoms: _51  and  _52
REMARK   19  A    between atoms: _57  and  _59
REMARK   20  A    between atoms: _59  and  _60
REMARK   21  A    between atoms: _63  and  _65
REMARK   22  A    between atoms: _65  and  _66
REMARK   23  A    between atoms: _65  and  _68
REMARK   24  A    between atoms: _68  and  _69
REMARK   25  A    between atoms: _74  and  _76
REMARK   26  A    between atoms: _76  and  _77
REMARK   27  A    between atoms: _76  and  _79
REMARK   28  A    between atoms: _79  and  _80
REMARK   29  A    between atoms: _83  and  _85
REMARK   30  A    between atoms: _85  and  _86
REMARK   31  A    between atoms: _85  and  _88
REMARK   32  A    between atoms: _88  and  _89
REMARK   33  A    between atoms: _89  and  _90
REMARK   34  A    between atoms: _95  and  _97
REMARK   35  A    between atoms: _97  and  _98
REMARK   36  A    between atoms: _97  and  _100
REMARK   37  A    between atoms: _100  and  _101
REMARK   38  A    between atoms: _107  and  _109
REMARK   39  A    between atoms: _120  and  _123
REMARK   40  A    between atoms: _123  and  _124
REMARK   41  A    between atoms: _132  and  _133
REMARK   42  A    between atoms: _141  and  _143
REMARK   43  A    between atoms: _143  and  _144
REMARK   44  A    between atoms: _143  and  _146
REMARK   45  A    between atoms: _146  and  _147
REMARK   46  A    between atoms: _147  and  _148
REMARK   47  A    between atoms: _151  and  _153
REMARK   48  A    between atoms: _153  and  _154
REMARK   49  A    between atoms: _153  and  _156
REMARK   50  A    between atoms: _156  and  _157
REMARK   51  A    between atoms: _162  and  _164
REMARK   52  A    between atoms: _164  and  _165
REMARK   53  A    between atoms: _164  and  _167
REMARK   54  A    between atoms: _167  and  _168
REMARK   55  A    between atoms: _168  and  _169
REMARK   56  A    between atoms: _172  and  _174
REMARK   57  A    between atoms: _174  and  _175
REMARK   58  A    between atoms: _174  and  _177
REMARK   59  A    between atoms: _177  and  _178
REMARK   60  A    between atoms: _181  and  _183
REMARK   61  A    between atoms: _183  and  _184
REMARK   62  A    between atoms: _183  and  _186
REMARK   63  A    between atoms: _186  and  _187
REMARK   64  A    between atoms: _188  and  ZN_420
REMARK   65  A    between atoms: _192  and  _194
REMARK   66  A    between atoms: _194  and  _195
REMARK   67  A    between atoms: _194  and  _197
REMARK   68  A    between atoms: _197  and  _198
REMARK   69  A    between atoms: _201  and  _203
REMARK   70  A    between atoms: _203  and  _204
REMARK   71  A    between atoms: _203  and  _206
REMARK   72  A    between atoms: _209  and  _211
REMARK   73  A    between atoms: _211  and  _212
REMARK   74  A    between atoms: _211  and  _214
REMARK   75  A    between atoms: _214  and  _215
REMARK   76  A    between atoms: _220  and  _222
REMARK   77  A    between atoms: _222  and  _223
REMARK   78  A    between atoms: _222  and  _225
REMARK   79  A    between atoms: _225  and  _226
REMARK   80  A    between atoms: _232  and  _234
REMARK   81  A    between atoms: _234  and  _235
REMARK   82  A    between atoms: _237  and  _239
REMARK   83  A    between atoms: _239  and  _240
REMARK   84  A    between atoms: _239  and  _242
REMARK   85  A    between atoms: _245  and  _247
REMARK   86  A    between atoms: _247  and  _248
REMARK   87  A    between atoms: _247  and  _250
REMARK   88  A    between atoms: _250  and  _251
REMARK   89  A    between atoms: _251  and  _252
REMARK   90  A    between atoms: _257  and  _259
REMARK   91  A    between atoms: _259  and  _260
REMARK   92  A    between atoms: _259  and  _262
REMARK   93  A    between atoms: _262  and  _263
REMARK   94  A    between atoms: _266  and  _268
REMARK   95  A    between atoms: _268  and  _269
REMARK   96  A    between atoms: _272  and  _274
REMARK   97  A    between atoms: _274  and  _275
REMARK   98  A    between atoms: _274  and  _277
REMARK   99  A    between atoms: _280  and  _282
REMARK  100  A    between atoms: _282  and  _283
REMARK  101  A    between atoms: _282  and  _285
REMARK  102  A    between atoms: _285  and  _286
REMARK  103  A    between atoms: _289  and  _291
REMARK  104  A    between atoms: _291  and  _292
REMARK  105  A    between atoms: _294  and  _296
REMARK  106  A    between atoms: _296  and  _297
REMARK  107  A    between atoms: _296  and  _299
REMARK  108  A    between atoms: _299  and  _300
REMARK  109  A    between atoms: _302  and  _304
REMARK  110  A    between atoms: _304  and  _305
REMARK  111  A    between atoms: _304  and  _307
REMARK  112  A    between atoms: _307  and  _308
REMARK  113  A    between atoms: _311  and  _313
REMARK  114  A    between atoms: _313  and  _314
REMARK  115  A    between atoms: _313  and  _316
REMARK  116  A    between atoms: _316  and  _317
REMARK  117  A    between atoms: _320  and  _322
REMARK  118  A    between atoms: _322  and  _323
REMARK  119  A    between atoms: _322  and  _325
REMARK  120  A    between atoms: _325  and  _326
REMARK  121  A    between atoms: _330  and  _331
REMARK  122  A    between atoms: _337  and  _338
REMARK  123  A    between atoms: _343  and  _345
REMARK  124  A    between atoms: _345  and  _346
REMARK  125  A    between atoms: _345  and  _348
REMARK  126  A    between atoms: _348  and  _349
REMARK  127  A    between atoms: _352  and  _354
REMARK  128  A    between atoms: _354  and  _355
REMARK  129  A    between atoms: _354  and  _357
REMARK  130  A    between atoms: _357  and  _358
REMARK  131  A    between atoms: _361  and  _363
REMARK  132  A    between atoms: _363  and  _364
REMARK  133  A    between atoms: _363  and  _366
REMARK  134  A    between atoms: _368  and  _370
REMARK  135  A    between atoms: _370  and  _371
REMARK  136  A    between atoms: _370  and  _373
REMARK  137  A    between atoms: _376  and  _378
REMARK  138  A    between atoms: _378  and  _379
REMARK  139  A    between atoms: _378  and  _381
REMARK  140  A    between atoms: _381  and  _382
REMARK  141  A    between atoms: _392  and  _394
REMARK  142  A    between atoms: _394  and  _395
REMARK  143  A    between atoms: _394  and  _397
REMARK  144  A    between atoms: _397  and  _398
REMARK  145  A    between atoms: _403  and  _405
REMARK  146  A    between atoms: _405  and  _406
REMARK  147  A    between atoms: _405  and  _408
REMARK  148  A    between atoms: _408  and  _409
REMARK  149  A    between atoms: _409  and  _410
REMARK  150  A    between atoms: _410  and  _411
REMARK                            x       y       z     vdW  Elec       q    Type
REMARK                         _______ _______ _______ _____ _____    ______ ____
ROOT
ATOM      1  CB  ASN A   1      -1.976  -7.416  10.315  0.00  0.00    +0.110 C 
ENDROOT
BRANCH   1   2
ATOM      2  CG  ASN A   1      -3.466  -7.617  10.106  0.00  0.00    +0.221 C 
ATOM      3  OD1 ASN A   1      -4.102  -8.415  10.791  0.00  0.00    -0.275 OA
ATOM      4  ND2 ASN A   1      -4.029  -6.887   9.152  0.00  0.00    -0.329 N 
ATOM      5 HD21 ASN A   1      -5.047  -6.978   8.960  0.00  0.00    +0.145 HD
ATOM      6 HD22 ASN A   1      -3.452  -6.224   8.596  0.00  0.00    +0.145 HD
ENDBRANCH   1   2
BRANCH   1   7
ATOM      7  CA  ASN A   1      -1.418  -8.275  11.450  0.00  0.00    +0.142 C 
BRANCH   7   8
ATOM      8  N   ASN A   1      -1.782  -9.673  11.256  0.00  0.00    -0.239 NA
ATOM      9  H   ASN A   1      -2.708  -9.906  10.843  0.00  0.00    +0.142 HD
ENDBRANCH   7   8
BRANCH   7  10
ATOM     10  C   ASN A   1      -1.974  -7.806  12.787  0.00  0.00    +0.225 C 
ATOM     11  O   ASN A   1      -2.630  -6.763  12.879  0.00  0.00    -0.287 OA
ENDBRANCH   7  10
ENDBRANCH   1   7
TORSDOF 4
REMARK  Name = ../refined-set-2016/3ibi/3ibi_pocket.pdb
REMARK  150 active torsions:
REMARK  status: ('A' for Active; 'I' for Inactive)
REMARK    1  A    between atoms: _1  and  _3
REMARK    2  A    between atoms: _3  and  _4
REMARK    3  A    between atoms: _3  and  _6
REMARK    4  A    between atoms: _6  and  _7
REMARK    5  A    between atoms: _17  and  _19
REMARK    6  A    between atoms: _19  and  _20
REMARK    7  A    between atoms: _19  and  _22
REMARK    8  A    between atoms: _22  and  _23
REMARK    9  A    between atoms: _28  and  _29
REMARK   10  A    between atoms: _31  and  _33
REMARK   11  A    between atoms: _33  and  _34
REMARK   12  A    between atoms: _33  and  _36
REMARK   13  A    between atoms: _36  and  _37
REMARK   14  A    between atoms: _40  and  _41
REMARK   15  A    between atoms: _46  and  _48
REMARK   16  A    between atoms: _48  and  _49
REMARK   17  A    between atoms: _48  and  _51
REMARK   18  A    between atoms: _51  and  _52
REMARK   19  A    between atoms: _57  and  _59
REMARK   20  A    between atoms: _59  and  _60
REMARK   21  A    between atoms: _63  and  _65
REMARK   22  A    between atoms: _65  and  _66
REMARK   23  A    between atoms: _65  and  _68
REMARK   24  A    between atoms: _68  and  _69
REMARK   25  A    between atoms: _74  and  _76
REMARK   26  A    between atoms: _76  and  _77
REMARK   27  A    between atoms: _76  and  _79
REMARK   28  A    between atoms: _79  and  _80
REMARK   29  A    between atoms: _83  and  _85
REMARK   30  A    between atoms: _85  and  _86
REMARK   31  A    between atoms: _85  and  _88
REMARK   32  A    between atoms: _88  and  _89
REMARK   33  A    between atoms: _89  and  _90
REMARK   34  A    between atoms: _95  and  _97
REMARK   35  A    between atoms: _97  and  _98
REMARK   36  A    between atoms: _97  and  _100
REMARK   37  A    between atoms: _100  and  _101
REMARK   38  A    between atoms: _107  and  _109
REMARK   39  A    between atoms: _120  and  _123
REMARK   40  A    between atoms: _123  and  _124
REMARK   41  A    between atoms: _132  and  _133
REMARK   42  A    between atoms: _141  and  _143
REMARK   43  A    between atoms: _143  and  _144
REMARK   44  A    between atoms: _143  and  _146
REMARK   45  A    between atoms: _146  and  _147
REMARK   46  A    between atoms: _147  and  _148
REMARK   47  A    between atoms: _151  and  _153
REMARK   48  A    between atoms: _153  and  _154
REMARK   49  A    between atoms: _153  and  _156
REMARK   50  A    between atoms: _156  and  _157
REMARK   51  A    between atoms: _162  and  _164
REMARK   52  A    between atoms: _164  and  _165
REMARK   53  A    between atoms: _164  and  _167
REMARK   54  A    between atoms: _167  and  _168
REMARK   55  A    between atoms: _168  and  _169
REMARK   56  A    between atoms: _172  and  _174
REMARK   57  A    between atoms: _174  and  _175
REMARK   58  A    between atoms: _174  and  _177
REMARK   59  A    between atoms: _177  and  _178
REMARK   60  A    between atoms: _181  and  _183
REMARK   61  A    between atoms: _183  and  _184
REMARK   62  A    between atoms: _183  and  _186
REMARK   63  A    between atoms: _186  and  _187
REMARK   64  A    between atoms: _188  and  ZN_420
REMARK   65  A    between atoms: _192  and  _194
REMARK   66  A    between atoms: _194  and  _195
REMARK   67  A    between atoms: _194  and  _197
REMARK   68  A    between atoms: _197  and  _198
REMARK   69  A    between atoms: _201  and  _203
REMARK   70  A    between atoms: _203  and  _204
REMARK   71  A    between atoms: _203  and  _206
REMARK   72  A    between atoms: _209  and  _211
REMARK   73  A    between atoms: _211  and  _212
REMARK   74  A    between atoms: _211  and  _214
REMARK   75  A    between atoms: _214  and  _215
REMARK   76  A    between atoms: _220  and  _222
REMARK   77  A    between atoms: _222  and  _223
REMARK   78  A    between atoms: _222  and  _225
REMARK   79  A    between atoms: _225  and  _226
REMARK   80  A    between atoms: _232  and  _234
REMARK   81  A    between atoms: _234  and  _235
REMARK   82  A    between atoms: _237  and  _239
REMARK   83  A    between atoms: _239  and  _240
REMARK   84  A    between atoms: _239  and  _242
REMARK   85  A    between atoms: _245  and  _247
REMARK   86  A    between atoms: _247  and  _248
REMARK   87  A    between atoms: _247  and  _250
REMARK   88  A    between atoms: _250  and  _251
REMARK   89  A    between atoms: _251  and  _252
REMARK   90  A    between atoms: _257  and  _259
REMARK   91  A    between atoms: _259  and  _260
REMARK   92  A    between atoms: _259  and  _262
REMARK   93  A    between atoms: _262  and  _263
REMARK   94  A    between atoms: _266  and  _268
REMARK   95  A    between atoms: _268  and  _269
REMARK   96  A    between atoms: _272  and  _274
REMARK   97  A    between atoms: _274  and  _275
REMARK   98  A    between atoms: _274  and  _277
REMARK   99  A    between atoms: _280  and  _282
REMARK  100  A    between atoms: _282  and  _283
REMARK  101  A    between atoms: _282  and  _285
REMARK  102  A    between atoms: _285  and  _286
REMARK  103  A    between atoms: _289  and  _291
REMARK  104  A    between atoms: _291  and  _292
REMARK  105  A    between atoms: _294  and  _296
REMARK  106  A    between atoms: _296  and  _297
REMARK  107  A    between atoms: _296  and  _299
REMARK  108  A    between atoms: _299  and  _300
REMARK  109  A    between atoms: _302  and  _304
REMARK  110  A    between atoms: _304  and  _305
REMARK  111  A    between atoms: _304  and  _307
REMARK  112  A    between atoms: _307  and  _308
REMARK  113  A    between atoms: _311  and  _313
REMARK  114  A    between atoms: _313  and  _314
REMARK  115  A    between atoms: _313  and  _316
REMARK  116  A    between atoms: _316  and  _317
REMARK  117  A    between atoms: _320  and  _322
REMARK  118  A    between atoms: _322  and  _323
REMARK  119  A    between atoms: _322  and  _325
REMARK  120  A    between atoms: _325  and  _326
REMARK  121  A    between atoms: _330  and  _331
REMARK  122  A    between atoms: _337  and  _338
REMARK  123  A    between atoms: _343  and  _345
REMARK  124  A    between atoms: _345  and  _346
REMARK  125  A    between atoms: _345  and  _348
REMARK  126  A    between atoms: _348  and  _349
REMARK  127  A    between atoms: _352  and  _354
REMARK  128  A    between atoms: _354  and  _355
REMARK  129  A    between atoms: _354  and  _357
REMARK  130  A    between atoms: _357  and  _358
REMARK  131  A    between atoms: _361  and  _363
REMARK  132  A    between atoms: _363  and  _364
REMARK  133  A    between atoms: _363  and  _366
REMARK  134  A    between atoms: _368  and  _370
REMARK  135  A    between atoms: _370  and  _371
REMARK  136  A    between atoms: _370  and  _373
REMARK  137  A    between atoms: _376  and  _378
REMARK  138  A    between atoms: _378  and  _379
REMARK  139  A    between atoms: _378  and  _381
REMARK  140  A    between atoms: _381  and  _382
REMARK  141  A    between atoms: _392  and  _394
REMARK  142  A    between atoms: _394  and  _395
REMARK  143  A    between atoms: _394  and  _397
REMARK  144  A    between atoms: _397  and  _398
REMARK  145  A    between atoms: _403  and  _405
REMARK  146  A    between atoms: _405  and  _406
REMARK  147  A    between atoms: _405  and  _408
REMARK  148  A    between atoms: _408  and  _409
REMARK  149  A    between atoms: _409  and  _410
REMARK  150  A    between atoms: _410  and  _411
REMARK                            x       y       z     vdW  Elec       q    Type
REMARK                         _______ _______ _______ _____ _____    ______ ____
ROOT
ATOM      1  NE  ARG A   1       2.229  -3.816  21.021  0.00  0.00    -0.265 N 
ATOM      2  CZ  ARG A   1       2.431  -2.798  21.856  0.00  0.00    +0.342 C 
ATOM      3  NH2 ARG A   1       3.632  -2.626  22.399  0.00  0.00    -0.292 N 
ATOM      4 HH21 ARG A   1       3.799  -1.834  23.052  0.00  0.00    +0.255 HD
ATOM      5 HH22 ARG A   1       4.405  -3.283  22.171  0.00  0.00    +0.255 HD
ATOM      6  NH1 ARG A   1       1.452  -1.948  22.143  0.00  0.00    -0.292 N 
ATOM      7 HH11 ARG A   1       1.624  -1.158  22.797  0.00  0.00    +0.255 HD
ATOM      8 HH12 ARG A   1       0.513  -2.073  21.714  0.00  0.00    +0.255 HD
ATOM      9  HE  ARG A   1       3.033  -4.450  20.841  0.00  0.00    +0.259 HD
ENDROOT
BRANCH   1  10
ATOM     10  CD  ARG A   1       0.971  -4.118  20.335  0.00  0.00    +0.174 C 
BRANCH  10  11
ATOM     11  CG  ARG A   1       1.050  -5.494  19.653  0.00  0.00    +0.045 C 
BRANCH  11  12
ATOM     12  CB  ARG A   1      -0.069  -5.738  18.639  0.00  0.00    +0.029 C 
BRANCH  12  13
ATOM     13  CA  ARG A   1      -0.175  -7.202  18.187  0.00  0.00    +0.133 C 
BRANCH  13  14
ATOM     14  N   ARG A   1      -1.183  -7.355  17.144  0.00  0.00    -0.239 NA
ATOM     15  H   ARG A   1      -2.046  -6.776  17.187  0.00  0.00    +0.142 HD
ENDBRANCH  13  14
BRANCH  13  16
ATOM     16  C   ARG A   1      -0.639  -8.058  19.364  0.00  0.00    +0.224 C 
ATOM     17  O   ARG A   1      -1.823  -8.047  19.717  0.00  0.00    -0.287 OA
ENDBRANCH  13  16
ENDBRANCH  12  13
ENDBRANCH  11  12
ENDBRANCH  10  11
ENDBRANCH   1  10
TORSDOF 6
REMARK  Name = ../refined-set-2016/3ibi/3ibi_pocket.pdb
REMARK  150 active torsions:
REMARK  status: ('A' for Active; 'I' for Inactive)
REMARK    1  A    between atoms: _1  and  _3
REMARK    2  A    between atoms: _3  and  _4
REMARK    3  A    between atoms: _3  and  _6
REMARK    4  A    between atoms: _6  and  _7
REMARK    5  A    between atoms: _17  and  _19
REMARK    6  A    between atoms: _19  and  _20
REMARK    7  A    between atoms: _19  and  _22
REMARK    8  A    between atoms: _22  and  _23
REMARK    9  A    between atoms: _28  and  _29
REMARK   10  A    between atoms: _31  and  _33
REMARK   11  A    between atoms: _33  and  _34
REMARK   12  A    between atoms: _33  and  _36
REMARK   13  A    between atoms: _36  and  _37
REMARK   14  A    between atoms: _40  and  _41
REMARK   15  A    between atoms: _46  and  _48
REMARK   16  A    between atoms: _48  and  _49
REMARK   17  A    between atoms: _48  and  _51
REMARK   18  A    between atoms: _51  and  _52
REMARK   19  A    between atoms: _57  and  _59
REMARK   20  A    between atoms: _59  and  _60
REMARK   21  A    between atoms: _63  and  _65
REMARK   22  A    between atoms: _65  and  _66
REMARK   23  A    between atoms: _65  and  _68
REMARK   24  A    between atoms: _68  and  _69
REMARK   25  A    between atoms: _74  and  _76
REMARK   26  A    between atoms: _76  and  _77
REMARK   27  A    between atoms: _76  and  _79
REMARK   28  A    between atoms: _79  and  _80
REMARK   29  A    between atoms: _83  and  _85
REMARK   30  A    between atoms: _85  and  _86
REMARK   31  A    between atoms: _85  and  _88
REMARK   32  A    between atoms: _88  and  _89
REMARK   33  A    between atoms: _89  and  _90
REMARK   34  A    between atoms: _95  and  _97
REMARK   35  A    between atoms: _97  and  _98
REMARK   36  A    between atoms: _97  and  _100
REMARK   37  A    between atoms: _100  and  _101
REMARK   38  A    between atoms: _107  and  _109
REMARK   39  A    between atoms: _120  and  _123
REMARK   40  A    between atoms: _123  and  _124
REMARK   41  A    between atoms: _132  and  _133
REMARK   42  A    between atoms: _141  and  _143
REMARK   43  A    between atoms: _143  and  _144
REMARK   44  A    between atoms: _143  and  _146
REMARK   45  A    between atoms: _146  and  _147
REMARK   46  A    between atoms: _147  and  _148
REMARK   47  A    between atoms: _151  and  _153
REMARK   48  A    between atoms: _153  and  _154
REMARK   49  A    between atoms: _153  and  _156
REMARK   50  A    between atoms: _156  and  _157
REMARK   51  A    between atoms: _162  and  _164
REMARK   52  A    between atoms: _164  and  _165
REMARK   53  A    between atoms: _164  and  _167
REMARK   54  A    between atoms: _167  and  _168
REMARK   55  A    between atoms: _168  and  _169
REMARK   56  A    between atoms: _172  and  _174
REMARK   57  A    between atoms: _174  and  _175
REMARK   58  A    between atoms: _174  and  _177
REMARK   59  A    between atoms: _177  and  _178
REMARK   60  A    between atoms: _181  and  _183
REMARK   61  A    between atoms: _183  and  _184
REMARK   62  A    between atoms: _183  and  _186
REMARK   63  A    between atoms: _186  and  _187
REMARK   64  A    between atoms: _188  and  ZN_420
REMARK   65  A    between atoms: _192  and  _194
REMARK   66  A    between atoms: _194  and  _195
REMARK   67  A    between atoms: _194  and  _197
REMARK   68  A    between atoms: _197  and  _198
REMARK   69  A    between atoms: _201  and  _203
REMARK   70  A    between atoms: _203  and  _204
REMARK   71  A    between atoms: _203  and  _206
REMARK   72  A    between atoms: _209  and  _211
REMARK   73  A    between atoms: _211  and  _212
REMARK   74  A    between atoms: _211  and  _214
REMARK   75  A    between atoms: _214  and  _215
REMARK   76  A    between atoms: _220  and  _222
REMARK   77  A    between atoms: _222  and  _223
REMARK   78  A    between atoms: _222  and  _225
REMARK   79  A    between atoms: _225  and  _226
REMARK   80  A    between atoms: _232  and  _234
REMARK   81  A    between atoms: _234  and  _235
REMARK   82  A    between atoms: _237  and  _239
REMARK   83  A    between atoms: _239  and  _240
REMARK   84  A    between atoms: _239  and  _242
REMARK   85  A    between atoms: _245  and  _247
REMARK   86  A    between atoms: _247  and  _248
REMARK   87  A    between atoms: _247  and  _250
REMARK   88  A    between atoms: _250  and  _251
REMARK   89  A    between atoms: _251  and  _252
REMARK   90  A    between atoms: _257  and  _259
REMARK   91  A    between atoms: _259  and  _260
REMARK   92  A    between atoms: _259  and  _262
REMARK   93  A    between atoms: _262  and  _263
REMARK   94  A    between atoms: _266  and  _268
REMARK   95  A    between atoms: _268  and  _269
REMARK   96  A    between atoms: _272  and  _274
REMARK   97  A    between atoms: _274  and  _275
REMARK   98  A    between atoms: _274  and  _277
REMARK   99  A    between atoms: _280  and  _282
REMARK  100  A    between atoms: _282  and  _283
REMARK  101  A    between atoms: _282  and  _285
REMARK  102  A    between atoms: _285  and  _286
REMARK  103  A    between atoms: _289  and  _291
REMARK  104  A    between atoms: _291  and  _292
REMARK  105  A    between atoms: _294  and  _296
REMARK  106  A    between atoms: _296  and  _297
REMARK  107  A    between atoms: _296  and  _299
REMARK  108  A    between atoms: _299  and  _300
REMARK  109  A    between atoms: _302  and  _304
REMARK  110  A    between atoms: _304  and  _305
REMARK  111  A    between atoms: _304  and  _307
REMARK  112  A    between atoms: _307  and  _308
REMARK  113  A    between atoms: _311  and  _313
REMARK  114  A    between atoms: _313  and  _314
REMARK  115  A    between atoms: _313  and  _316
REMARK  116  A    between atoms: _316  and  _317
REMARK  117  A    between atoms: _320  and  _322
REMARK  118  A    between atoms: _322  and  _323
REMARK  119  A    between atoms: _322  and  _325
REMARK  120  A    between atoms: _325  and  _326
REMARK  121  A    between atoms: _330  and  _331
REMARK  122  A    between atoms: _337  and  _338
REMARK  123  A    between atoms: _343  and  _345
REMARK  124  A    between atoms: _345  and  _346
REMARK  125  A    between atoms: _345  and  _348
REMARK  126  A    between atoms: _348  and  _349
REMARK  127  A    between atoms: _352  and  _354
REMARK  128  A    between atoms: _354  and  _355
REMARK  129  A    between atoms: _354  and  _357
REMARK  130  A    between atoms: _357  and  _358
REMARK  131  A    between atoms: _361  and  _363
REMARK  132  A    between atoms: _363  and  _364
REMARK  133  A    between atoms: _363  and  _366
REMARK  134  A    between atoms: _368  and  _370
REMARK  135  A    between atoms: _370  and  _371
REMARK  136  A    between atoms: _370  and  _373
REMARK  137  A    between atoms: _376  and  _378
REMARK  138  A    between atoms: _378  and  _379
REMARK  139  A    between atoms: _378  and  _381
REMARK  140  A    between atoms: _381  and  _382
REMARK  141  A    between atoms: _392  and  _394
REMARK  142  A    between atoms: _394  and  _395
REMARK  143  A    between atoms: _394  and  _397
REMARK  144  A    between atoms: _397  and  _398
REMARK  145  A    between atoms: _403  and  _405
REMARK  146  A    between atoms: _405  and  _406
REMARK  147  A    between atoms: _405  and  _408
REMARK  148  A    between atoms: _408  and  _409
REMARK  149  A    between atoms: _409  and  _410
REMARK  150  A    between atoms: _410  and  _411
REMARK                            x       y       z     vdW  Elec       q    Type
REMARK                         _______ _______ _______ _____ _____    ______ ____
ROOT
ATOM      1  O   HOH     1      -1.290  -4.062  15.593  0.00  0.00    +0.000 OA
ENDROOT
TORSDOF 0
REMARK  Name = ../refined-set-2016/3ibi/3ibi_pocket.pdb
REMARK  150 active torsions:
REMARK  status: ('A' for Active; 'I' for Inactive)
REMARK    1  A    between atoms: _1  and  _3
REMARK    2  A    between atoms: _3  and  _4
REMARK    3  A    between atoms: _3  and  _6
REMARK    4  A    between atoms: _6  and  _7
REMARK    5  A    between atoms: _17  and  _19
REMARK    6  A    between atoms: _19  and  _20
REMARK    7  A    between atoms: _19  and  _22
REMARK    8  A    between atoms: _22  and  _23
REMARK    9  A    between atoms: _28  and  _29
REMARK   10  A    between atoms: _31  and  _33
REMARK   11  A    between atoms: _33  and  _34
REMARK   12  A    between atoms: _33  and  _36
REMARK   13  A    between atoms: _36  and  _37
REMARK   14  A    between atoms: _40  and  _41
REMARK   15  A    between atoms: _46  and  _48
REMARK   16  A    between atoms: _48  and  _49
REMARK   17  A    between atoms: _48  and  _51
REMARK   18  A    between atoms: _51  and  _52
REMARK   19  A    between atoms: _57  and  _59
REMARK   20  A    between atoms: _59  and  _60
REMARK   21  A    between atoms: _63  and  _65
REMARK   22  A    between atoms: _65  and  _66
REMARK   23  A    between atoms: _65  and  _68
REMARK   24  A    between atoms: _68  and  _69
REMARK   25  A    between atoms: _74  and  _76
REMARK   26  A    between atoms: _76  and  _77
REMARK   27  A    between atoms: _76  and  _79
REMARK   28  A    between atoms: _79  and  _80
REMARK   29  A    between atoms: _83  and  _85
REMARK   30  A    between atoms: _85  and  _86
REMARK   31  A    between atoms: _85  and  _88
REMARK   32  A    between atoms: _88  and  _89
REMARK   33  A    between atoms: _89  and  _90
REMARK   34  A    between atoms: _95  and  _97
REMARK   35  A    between atoms: _97  and  _98
REMARK   36  A    between atoms: _97  and  _100
REMARK   37  A    between atoms: _100  and  _101
REMARK   38  A    between atoms: _107  and  _109
REMARK   39  A    between atoms: _120  and  _123
REMARK   40  A    between atoms: _123  and  _124
REMARK   41  A    between atoms: _132  and  _133
REMARK   42  A    between atoms: _141  and  _143
REMARK   43  A    between atoms: _143  and  _144
REMARK   44  A    between atoms: _143  and  _146
REMARK   45  A    between atoms: _146  and  _147
REMARK   46  A    between atoms: _147  and  _148
REMARK   47  A    between atoms: _151  and  _153
REMARK   48  A    between atoms: _153  and  _154
REMARK   49  A    between atoms: _153  and  _156
REMARK   50  A    between atoms: _156  and  _157
REMARK   51  A    between atoms: _162  and  _164
REMARK   52  A    between atoms: _164  and  _165
REMARK   53  A    between atoms: _164  and  _167
REMARK   54  A    between atoms: _167  and  _168
REMARK   55  A    between atoms: _168  and  _169
REMARK   56  A    between atoms: _172  and  _174
REMARK   57  A    between atoms: _174  and  _175
REMARK   58  A    between atoms: _174  and  _177
REMARK   59  A    between atoms: _177  and  _178
REMARK   60  A    between atoms: _181  and  _183
REMARK   61  A    between atoms: _183  and  _184
REMARK   62  A    between atoms: _183  and  _186
REMARK   63  A    between atoms: _186  and  _187
REMARK   64  A    between atoms: _188  and  ZN_420
REMARK   65  A    between atoms: _192  and  _194
REMARK   66  A    between atoms: _194  and  _195
REMARK   67  A    between atoms: _194  and  _197
REMARK   68  A    between atoms: _197  and  _198
REMARK   69  A    between atoms: _201  and  _203
REMARK   70  A    between atoms: _203  and  _204
REMARK   71  A    between atoms: _203  and  _206
REMARK   72  A    between atoms: _209  and  _211
REMARK   73  A    between atoms: _211  and  _212
REMARK   74  A    between atoms: _211  and  _214
REMARK   75  A    between atoms: _214  and  _215
REMARK   76  A    between atoms: _220  and  _222
REMARK   77  A    between atoms: _222  and  _223
REMARK   78  A    between atoms: _222  and  _225
REMARK   79  A    between atoms: _225  and  _226
REMARK   80  A    between atoms: _232  and  _234
REMARK   81  A    between atoms: _234  and  _235
REMARK   82  A    between atoms: _237  and  _239
REMARK   83  A    between atoms: _239  and  _240
REMARK   84  A    between atoms: _239  and  _242
REMARK   85  A    between atoms: _245  and  _247
REMARK   86  A    between atoms: _247  and  _248
REMARK   87  A    between atoms: _247  and  _250
REMARK   88  A    between atoms: _250  and  _251
REMARK   89  A    between atoms: _251  and  _252
REMARK   90  A    between atoms: _257  and  _259
REMARK   91  A    between atoms: _259  and  _260
REMARK   92  A    between atoms: _259  and  _262
REMARK   93  A    between atoms: _262  and  _263
REMARK   94  A    between atoms: _266  and  _268
REMARK   95  A    between atoms: _268  and  _269
REMARK   96  A    between atoms: _272  and  _274
REMARK   97  A    between atoms: _274  and  _275
REMARK   98  A    between atoms: _274  and  _277
REMARK   99  A    between atoms: _280  and  _282
REMARK  100  A    between atoms: _282  and  _283
REMARK  101  A    between atoms: _282  and  _285
REMARK  102  A    between atoms: _285  and  _286
REMARK  103  A    between atoms: _289  and  _291
REMARK  104  A    between atoms: _291  and  _292
REMARK  105  A    between atoms: _294  and  _296
REMARK  106  A    between atoms: _296  and  _297
REMARK  107  A    between atoms: _296  and  _299
REMARK  108  A    between atoms: _299  and  _300
REMARK  109  A    between atoms: _302  and  _304
REMARK  110  A    between atoms: _304  and  _305
REMARK  111  A    between atoms: _304  and  _307
REMARK  112  A    between atoms: _307  and  _308
REMARK  113  A    between atoms: _311  and  _313
REMARK  114  A    between atoms: _313  and  _314
REMARK  115  A    between atoms: _313  and  _316
REMARK  116  A    between atoms: _316  and  _317
REMARK  117  A    between atoms: _320  and  _322
REMARK  118  A    between atoms: _322  and  _323
REMARK  119  A    between atoms: _322  and  _325
REMARK  120  A    between atoms: _325  and  _326
REMARK  121  A    between atoms: _330  and  _331
REMARK  122  A    between atoms: _337  and  _338
REMARK  123  A    between atoms: _343  and  _345
REMARK  124  A    between atoms: _345  and  _346
REMARK  125  A    between atoms: _345  and  _348
REMARK  126  A    between atoms: _348  and  _349
REMARK  127  A    between atoms: _352  and  _354
REMARK  128  A    between atoms: _354  and  _355
REMARK  129  A    between atoms: _354  and  _357
REMARK  130  A    between atoms: _357  and  _358
REMARK  131  A    between atoms: _361  and  _363
REMARK  132  A    between atoms: _363  and  _364
REMARK  133  A    between atoms: _363  and  _366
REMARK  134  A    between atoms: _368  and  _370
REMARK  135  A    between atoms: _370  and  _371
REMARK  136  A    between atoms: _370  and  _373
REMARK  137  A    between atoms: _376  and  _378
REMARK  138  A    between atoms: _378  and  _379
REMARK  139  A    between atoms: _378  and  _381
REMARK  140  A    between atoms: _381  and  _382
REMARK  141  A    between atoms: _392  and  _394
REMARK  142  A    between atoms: _394  and  _395
REMARK  143  A    between atoms: _394  and  _397
REMARK  144  A    between atoms: _397  and  _398
REMARK  145  A    between atoms: _403  and  _405
REMARK  146  A    between atoms: _405  and  _406
REMARK  147  A    between atoms: _405  and  _408
REMARK  148  A    between atoms: _408  and  _409
REMARK  149  A    between atoms: _409  and  _410
REMARK  150  A    between atoms: _410  and  _411
REMARK                            x       y       z     vdW  Elec       q    Type
REMARK                         _______ _______ _______ _____ _____    ______ ____
ROOT
ATOM      1  O   HOH     1      -6.473   8.925   9.676  0.00  0.00    +0.000 OA
ENDROOT
TORSDOF 0
REMARK  Name = ../refined-set-2016/3ibi/3ibi_pocket.pdb
REMARK  150 active torsions:
REMARK  status: ('A' for Active; 'I' for Inactive)
REMARK    1  A    between atoms: _1  and  _3
REMARK    2  A    between atoms: _3  and  _4
REMARK    3  A    between atoms: _3  and  _6
REMARK    4  A    between atoms: _6  and  _7
REMARK    5  A    between atoms: _17  and  _19
REMARK    6  A    between atoms: _19  and  _20
REMARK    7  A    between atoms: _19  and  _22
REMARK    8  A    between atoms: _22  and  _23
REMARK    9  A    between atoms: _28  and  _29
REMARK   10  A    between atoms: _31  and  _33
REMARK   11  A    between atoms: _33  and  _34
REMARK   12  A    between atoms: _33  and  _36
REMARK   13  A    between atoms: _36  and  _37
REMARK   14  A    between atoms: _40  and  _41
REMARK   15  A    between atoms: _46  and  _48
REMARK   16  A    between atoms: _48  and  _49
REMARK   17  A    between atoms: _48  and  _51
REMARK   18  A    between atoms: _51  and  _52
REMARK   19  A    between atoms: _57  and  _59
REMARK   20  A    between atoms: _59  and  _60
REMARK   21  A    between atoms: _63  and  _65
REMARK   22  A    between atoms: _65  and  _66
REMARK   23  A    between atoms: _65  and  _68
REMARK   24  A    between atoms: _68  and  _69
REMARK   25  A    between atoms: _74  and  _76
REMARK   26  A    between atoms: _76  and  _77
REMARK   27  A    between atoms: _76  and  _79
REMARK   28  A    between atoms: _79  and  _80
REMARK   29  A    between atoms: _83  and  _85
REMARK   30  A    between atoms: _85  and  _86
REMARK   31  A    between atoms: _85  and  _88
REMARK   32  A    between atoms: _88  and  _89
REMARK   33  A    between atoms: _89  and  _90
REMARK   34  A    between atoms: _95  and  _97
REMARK   35  A    between atoms: _97  and  _98
REMARK   36  A    between atoms: _97  and  _100
REMARK   37  A    between atoms: _100  and  _101
REMARK   38  A    between atoms: _107  and  _109
REMARK   39  A    between atoms: _120  and  _123
REMARK   40  A    between atoms: _123  and  _124
REMARK   41  A    between atoms: _132  and  _133
REMARK   42  A    between atoms: _141  and  _143
REMARK   43  A    between atoms: _143  and  _144
REMARK   44  A    between atoms: _143  and  _146
REMARK   45  A    between atoms: _146  and  _147
REMARK   46  A    between atoms: _147  and  _148
REMARK   47  A    between atoms: _151  and  _153
REMARK   48  A    between atoms: _153  and  _154
REMARK   49  A    between atoms: _153  and  _156
REMARK   50  A    between atoms: _156  and  _157
REMARK   51  A    between atoms: _162  and  _164
REMARK   52  A    between atoms: _164  and  _165
REMARK   53  A    between atoms: _164  and  _167
REMARK   54  A    between atoms: _167  and  _168
REMARK   55  A    between atoms: _168  and  _169
REMARK   56  A    between atoms: _172  and  _174
REMARK   57  A    between atoms: _174  and  _175
REMARK   58  A    between atoms: _174  and  _177
REMARK   59  A    between atoms: _177  and  _178
REMARK   60  A    between atoms: _181  and  _183
REMARK   61  A    between atoms: _183  and  _184
REMARK   62  A    between atoms: _183  and  _186
REMARK   63  A    between atoms: _186  and  _187
REMARK   64  A    between atoms: _188  and  ZN_420
REMARK   65  A    between atoms: _192  and  _194
REMARK   66  A    between atoms: _194  and  _195
REMARK   67  A    between atoms: _194  and  _197
REMARK   68  A    between atoms: _197  and  _198
REMARK   69  A    between atoms: _201  and  _203
REMARK   70  A    between atoms: _203  and  _204
REMARK   71  A    between atoms: _203  and  _206
REMARK   72  A    between atoms: _209  and  _211
REMARK   73  A    between atoms: _211  and  _212
REMARK   74  A    between atoms: _211  and  _214
REMARK   75  A    between atoms: _214  and  _215
REMARK   76  A    between atoms: _220  and  _222
REMARK   77  A    between atoms: _222  and  _223
REMARK   78  A    between atoms: _222  and  _225
REMARK   79  A    between atoms: _225  and  _226
REMARK   80  A    between atoms: _232  and  _234
REMARK   81  A    between atoms: _234  and  _235
REMARK   82  A    between atoms: _237  and  _239
REMARK   83  A    between atoms: _239  and  _240
REMARK   84  A    between atoms: _239  and  _242
REMARK   85  A    between atoms: _245  and  _247
REMARK   86  A    between atoms: _247  and  _248
REMARK   87  A    between atoms: _247  and  _250
REMARK   88  A    between atoms: _250  and  _251
REMARK   89  A    between atoms: _251  and  _252
REMARK   90  A    between atoms: _257  and  _259
REMARK   91  A    between atoms: _259  and  _260
REMARK   92  A    between atoms: _259  and  _262
REMARK   93  A    between atoms: _262  and  _263
REMARK   94  A    between atoms: _266  and  _268
REMARK   95  A    between atoms: _268  and  _269
REMARK   96  A    between atoms: _272  and  _274
REMARK   97  A    between atoms: _274  and  _275
REMARK   98  A    between atoms: _274  and  _277
REMARK   99  A    between atoms: _280  and  _282
REMARK  100  A    between atoms: _282  and  _283
REMARK  101  A    between atoms: _282  and  _285
REMARK  102  A    between atoms: _285  and  _286
REMARK  103  A    between atoms: _289  and  _291
REMARK  104  A    between atoms: _291  and  _292
REMARK  105  A    between atoms: _294  and  _296
REMARK  106  A    between atoms: _296  and  _297
REMARK  107  A    between atoms: _296  and  _299
REMARK  108  A    between atoms: _299  and  _300
REMARK  109  A    between atoms: _302  and  _304
REMARK  110  A    between atoms: _304  and  _305
REMARK  111  A    between atoms: _304  and  _307
REMARK  112  A    between atoms: _307  and  _308
REMARK  113  A    between atoms: _311  and  _313
REMARK  114  A    between atoms: _313  and  _314
REMARK  115  A    between atoms: _313  and  _316
REMARK  116  A    between atoms: _316  and  _317
REMARK  117  A    between atoms: _320  and  _322
REMARK  118  A    between atoms: _322  and  _323
REMARK  119  A    between atoms: _322  and  _325
REMARK  120  A    between atoms: _325  and  _326
REMARK  121  A    between atoms: _330  and  _331
REMARK  122  A    between atoms: _337  and  _338
REMARK  123  A    between atoms: _343  and  _345
REMARK  124  A    between atoms: _345  and  _346
REMARK  125  A    between atoms: _345  and  _348
REMARK  126  A    between atoms: _348  and  _349
REMARK  127  A    between atoms: _352  and  _354
REMARK  128  A    between atoms: _354  and  _355
REMARK  129  A    between atoms: _354  and  _357
REMARK  130  A    between atoms: _357  and  _358
REMARK  131  A    between atoms: _361  and  _363
REMARK  132  A    between atoms: _363  and  _364
REMARK  133  A    between atoms: _363  and  _366
REMARK  134  A    between atoms: _368  and  _370
REMARK  135  A    between atoms: _370  and  _371
REMARK  136  A    between atoms: _370  and  _373
REMARK  137  A    between atoms: _376  and  _378
REMARK  138  A    between atoms: _378  and  _379
REMARK  139  A    between atoms: _378  and  _381
REMARK  140  A    between atoms: _381  and  _382
REMARK  141  A    between atoms: _392  and  _394
REMARK  142  A    between atoms: _394  and  _395
REMARK  143  A    between atoms: _394  and  _397
REMARK  144  A    between atoms: _397  and  _398
REMARK  145  A    between atoms: _403  and  _405
REMARK  146  A    between atoms: _405  and  _406
REMARK  147  A    between atoms: _405  and  _408
REMARK  148  A    between atoms: _408  and  _409
REMARK  149  A    between atoms: _409  and  _410
REMARK  150  A    between atoms: _410  and  _411
REMARK                            x       y       z     vdW  Elec       q    Type
REMARK                         _______ _______ _______ _____ _____    ______ ____
ROOT
ATOM      1  O   HOH     1       0.061  12.500  14.105  0.00  0.00    +0.000 OA
ENDROOT
TORSDOF 0
REMARK  Name = ../refined-set-2016/3ibi/3ibi_pocket.pdb
REMARK  150 active torsions:
REMARK  status: ('A' for Active; 'I' for Inactive)
REMARK    1  A    between atoms: _1  and  _3
REMARK    2  A    between atoms: _3  and  _4
REMARK    3  A    between atoms: _3  and  _6
REMARK    4  A    between atoms: _6  and  _7
REMARK    5  A    between atoms: _17  and  _19
REMARK    6  A    between atoms: _19  and  _20
REMARK    7  A    between atoms: _19  and  _22
REMARK    8  A    between atoms: _22  and  _23
REMARK    9  A    between atoms: _28  and  _29
REMARK   10  A    between atoms: _31  and  _33
REMARK   11  A    between atoms: _33  and  _34
REMARK   12  A    between atoms: _33  and  _36
REMARK   13  A    between atoms: _36  and  _37
REMARK   14  A    between atoms: _40  and  _41
REMARK   15  A    between atoms: _46  and  _48
REMARK   16  A    between atoms: _48  and  _49
REMARK   17  A    between atoms: _48  and  _51
REMARK   18  A    between atoms: _51  and  _52
REMARK   19  A    between atoms: _57  and  _59
REMARK   20  A    between atoms: _59  and  _60
REMARK   21  A    between atoms: _63  and  _65
REMARK   22  A    between atoms: _65  and  _66
REMARK   23  A    between atoms: _65  and  _68
REMARK   24  A    between atoms: _68  and  _69
REMARK   25  A    between atoms: _74  and  _76
REMARK   26  A    between atoms: _76  and  _77
REMARK   27  A    between atoms: _76  and  _79
REMARK   28  A    between atoms: _79  and  _80
REMARK   29  A    between atoms: _83  and  _85
REMARK   30  A    between atoms: _85  and  _86
REMARK   31  A    between atoms: _85  and  _88
REMARK   32  A    between atoms: _88  and  _89
REMARK   33  A    between atoms: _89  and  _90
REMARK   34  A    between atoms: _95  and  _97
REMARK   35  A    between atoms: _97  and  _98
REMARK   36  A    between atoms: _97  and  _100
REMARK   37  A    between atoms: _100  and  _101
REMARK   38  A    between atoms: _107  and  _109
REMARK   39  A    between atoms: _120  and  _123
REMARK   40  A    between atoms: _123  and  _124
REMARK   41  A    between atoms: _132  and  _133
REMARK   42  A    between atoms: _141  and  _143
REMARK   43  A    between atoms: _143  and  _144
REMARK   44  A    between atoms: _143  and  _146
REMARK   45  A    between atoms: _146  and  _147
REMARK   46  A    between atoms: _147  and  _148
REMARK   47  A    between atoms: _151  and  _153
REMARK   48  A    between atoms: _153  and  _154
REMARK   49  A    between atoms: _153  and  _156
REMARK   50  A    between atoms: _156  and  _157
REMARK   51  A    between atoms: _162  and  _164
REMARK   52  A    between atoms: _164  and  _165
REMARK   53  A    between atoms: _164  and  _167
REMARK   54  A    between atoms: _167  and  _168
REMARK   55  A    between atoms: _168  and  _169
REMARK   56  A    between atoms: _172  and  _174
REMARK   57  A    between atoms: _174  and  _175
REMARK   58  A    between atoms: _174  and  _177
REMARK   59  A    between atoms: _177  and  _178
REMARK   60  A    between atoms: _181  and  _183
REMARK   61  A    between atoms: _183  and  _184
REMARK   62  A    between atoms: _183  and  _186
REMARK   63  A    between atoms: _186  and  _187
REMARK   64  A    between atoms: _188  and  ZN_420
REMARK   65  A    between atoms: _192  and  _194
REMARK   66  A    between atoms: _194  and  _195
REMARK   67  A    between atoms: _194  and  _197
REMARK   68  A    between atoms: _197  and  _198
REMARK   69  A    between atoms: _201  and  _203
REMARK   70  A    between atoms: _203  and  _204
REMARK   71  A    between atoms: _203  and  _206
REMARK   72  A    between atoms: _209  and  _211
REMARK   73  A    between atoms: _211  and  _212
REMARK   74  A    between atoms: _211  and  _214
REMARK   75  A    between atoms: _214  and  _215
REMARK   76  A    between atoms: _220  and  _222
REMARK   77  A    between atoms: _222  and  _223
REMARK   78  A    between atoms: _222  and  _225
REMARK   79  A    between atoms: _225  and  _226
REMARK   80  A    between atoms: _232  and  _234
REMARK   81  A    between atoms: _234  and  _235
REMARK   82  A    between atoms: _237  and  _239
REMARK   83  A    between atoms: _239  and  _240
REMARK   84  A    between atoms: _239  and  _242
REMARK   85  A    between atoms: _245  and  _247
REMARK   86  A    between atoms: _247  and  _248
REMARK   87  A    between atoms: _247  and  _250
REMARK   88  A    between atoms: _250  and  _251
REMARK   89  A    between atoms: _251  and  _252
REMARK   90  A    between atoms: _257  and  _259
REMARK   91  A    between atoms: _259  and  _260
REMARK   92  A    between atoms: _259  and  _262
REMARK   93  A    between atoms: _262  and  _263
REMARK   94  A    between atoms: _266  and  _268
REMARK   95  A    between atoms: _268  and  _269
REMARK   96  A    between atoms: _272  and  _274
REMARK   97  A    between atoms: _274  and  _275
REMARK   98  A    between atoms: _274  and  _277
REMARK   99  A    between atoms: _280  and  _282
REMARK  100  A    between atoms: _282  and  _283
REMARK  101  A    between atoms: _282  and  _285
REMARK  102  A    between atoms: _285  and  _286
REMARK  103  A    between atoms: _289  and  _291
REMARK  104  A    between atoms: _291  and  _292
REMARK  105  A    between atoms: _294  and  _296
REMARK  106  A    between atoms: _296  and  _297
REMARK  107  A    between atoms: _296  and  _299
REMARK  108  A    between atoms: _299  and  _300
REMARK  109  A    between atoms: _302  and  _304
REMARK  110  A    between atoms: _304  and  _305
REMARK  111  A    between atoms: _304  and  _307
REMARK  112  A    between atoms: _307  and  _308
REMARK  113  A    between atoms: _311  and  _313
REMARK  114  A    between atoms: _313  and  _314
REMARK  115  A    between atoms: _313  and  _316
REMARK  116  A    between atoms: _316  and  _317
REMARK  117  A    between atoms: _320  and  _322
REMARK  118  A    between atoms: _322  and  _323
REMARK  119  A    between atoms: _322  and  _325
REMARK  120  A    between atoms: _325  and  _326
REMARK  121  A    between atoms: _330  and  _331
REMARK  122  A    between atoms: _337  and  _338
REMARK  123  A    between atoms: _343  and  _345
REMARK  124  A    between atoms: _345  and  _346
REMARK  125  A    between atoms: _345  and  _348
REMARK  126  A    between atoms: _348  and  _349
REMARK  127  A    between atoms: _352  and  _354
REMARK  128  A    between atoms: _354  and  _355
REMARK  129  A    between atoms: _354  and  _357
REMARK  130  A    between atoms: _357  and  _358
REMARK  131  A    between atoms: _361  and  _363
REMARK  132  A    between atoms: _363  and  _364
REMARK  133  A    between atoms: _363  and  _366
REMARK  134  A    between atoms: _368  and  _370
REMARK  135  A    between atoms: _370  and  _371
REMARK  136  A    between atoms: _370  and  _373
REMARK  137  A    between atoms: _376  and  _378
REMARK  138  A    between atoms: _378  and  _379
REMARK  139  A    between atoms: _378  and  _381
REMARK  140  A    between atoms: _381  and  _382
REMARK  141  A    between atoms: _392  and  _394
REMARK  142  A    between atoms: _394  and  _395
REMARK  143  A    between atoms: _394  and  _397
REMARK  144  A    between atoms: _397  and  _398
REMARK  145  A    between atoms: _403  and  _405
REMARK  146  A    between atoms: _405  and  _406
REMARK  147  A    between atoms: _405  and  _408
REMARK  148  A    between atoms: _408  and  _409
REMARK  149  A    between atoms: _409  and  _410
REMARK  150  A    between atoms: _410  and  _411
REMARK                            x       y       z     vdW  Elec       q    Type
REMARK                         _______ _______ _______ _____ _____    ______ ____
ROOT
ATOM      1  O   HOH     1      -2.350  -3.084  11.187  0.00  0.00    +0.000 OA
ENDROOT
TORSDOF 0
REMARK  Name = ../refined-set-2016/3ibi/3ibi_pocket.pdb
REMARK  150 active torsions:
REMARK  status: ('A' for Active; 'I' for Inactive)
REMARK    1  A    between atoms: _1  and  _3
REMARK    2  A    between atoms: _3  and  _4
REMARK    3  A    between atoms: _3  and  _6
REMARK    4  A    between atoms: _6  and  _7
REMARK    5  A    between atoms: _17  and  _19
REMARK    6  A    between atoms: _19  and  _20
REMARK    7  A    between atoms: _19  and  _22
REMARK    8  A    between atoms: _22  and  _23
REMARK    9  A    between atoms: _28  and  _29
REMARK   10  A    between atoms: _31  and  _33
REMARK   11  A    between atoms: _33  and  _34
REMARK   12  A    between atoms: _33  and  _36
REMARK   13  A    between atoms: _36  and  _37
REMARK   14  A    between atoms: _40  and  _41
REMARK   15  A    between atoms: _46  and  _48
REMARK   16  A    between atoms: _48  and  _49
REMARK   17  A    between atoms: _48  and  _51
REMARK   18  A    between atoms: _51  and  _52
REMARK   19  A    between atoms: _57  and  _59
REMARK   20  A    between atoms: _59  and  _60
REMARK   21  A    between atoms: _63  and  _65
REMARK   22  A    between atoms: _65  and  _66
REMARK   23  A    between atoms: _65  and  _68
REMARK   24  A    between atoms: _68  and  _69
REMARK   25  A    between atoms: _74  and  _76
REMARK   26  A    between atoms: _76  and  _77
REMARK   27  A    between atoms: _76  and  _79
REMARK   28  A    between atoms: _79  and  _80
REMARK   29  A    between atoms: _83  and  _85
REMARK   30  A    between atoms: _85  and  _86
REMARK   31  A    between atoms: _85  and  _88
REMARK   32  A    between atoms: _88  and  _89
REMARK   33  A    between atoms: _89  and  _90
REMARK   34  A    between atoms: _95  and  _97
REMARK   35  A    between atoms: _97  and  _98
REMARK   36  A    between atoms: _97  and  _100
REMARK   37  A    between atoms: _100  and  _101
REMARK   38  A    between atoms: _107  and  _109
REMARK   39  A    between atoms: _120  and  _123
REMARK   40  A    between atoms: _123  and  _124
REMARK   41  A    between atoms: _132  and  _133
REMARK   42  A    between atoms: _141  and  _143
REMARK   43  A    between atoms: _143  and  _144
REMARK   44  A    between atoms: _143  and  _146
REMARK   45  A    between atoms: _146  and  _147
REMARK   46  A    between atoms: _147  and  _148
REMARK   47  A    between atoms: _151  and  _153
REMARK   48  A    between atoms: _153  and  _154
REMARK   49  A    between atoms: _153  and  _156
REMARK   50  A    between atoms: _156  and  _157
REMARK   51  A    between atoms: _162  and  _164
REMARK   52  A    between atoms: _164  and  _165
REMARK   53  A    between atoms: _164  and  _167
REMARK   54  A    between atoms: _167  and  _168
REMARK   55  A    between atoms: _168  and  _169
REMARK   56  A    between atoms: _172  and  _174
REMARK   57  A    between atoms: _174  and  _175
REMARK   58  A    between atoms: _174  and  _177
REMARK   59  A    between atoms: _177  and  _178
REMARK   60  A    between atoms: _181  and  _183
REMARK   61  A    between atoms: _183  and  _184
REMARK   62  A    between atoms: _183  and  _186
REMARK   63  A    between atoms: _186  and  _187
REMARK   64  A    between atoms: _188  and  ZN_420
REMARK   65  A    between atoms: _192  and  _194
REMARK   66  A    between atoms: _194  and  _195
REMARK   67  A    between atoms: _194  and  _197
REMARK   68  A    between atoms: _197  and  _198
REMARK   69  A    between atoms: _201  and  _203
REMARK   70  A    between atoms: _203  and  _204
REMARK   71  A    between atoms: _203  and  _206
REMARK   72  A    between atoms: _209  and  _211
REMARK   73  A    between atoms: _211  and  _212
REMARK   74  A    between atoms: _211  and  _214
REMARK   75  A    between atoms: _214  and  _215
REMARK   76  A    between atoms: _220  and  _222
REMARK   77  A    between atoms: _222  and  _223
REMARK   78  A    between atoms: _222  and  _225
REMARK   79  A    between atoms: _225  and  _226
REMARK   80  A    between atoms: _232  and  _234
REMARK   81  A    between atoms: _234  and  _235
REMARK   82  A    between atoms: _237  and  _239
REMARK   83  A    between atoms: _239  and  _240
REMARK   84  A    between atoms: _239  and  _242
REMARK   85  A    between atoms: _245  and  _247
REMARK   86  A    between atoms: _247  and  _248
REMARK   87  A    between atoms: _247  and  _250
REMARK   88  A    between atoms: _250  and  _251
REMARK   89  A    between atoms: _251  and  _252
REMARK   90  A    between atoms: _257  and  _259
REMARK   91  A    between atoms: _259  and  _260
REMARK   92  A    between atoms: _259  and  _262
REMARK   93  A    between atoms: _262  and  _263
REMARK   94  A    between atoms: _266  and  _268
REMARK   95  A    between atoms: _268  and  _269
REMARK   96  A    between atoms: _272  and  _274
REMARK   97  A    between atoms: _274  and  _275
REMARK   98  A    between atoms: _274  and  _277
REMARK   99  A    between atoms: _280  and  _282
REMARK  100  A    between atoms: _282  and  _283
REMARK  101  A    between atoms: _282  and  _285
REMARK  102  A    between atoms: _285  and  _286
REMARK  103  A    between atoms: _289  and  _291
REMARK  104  A    between atoms: _291  and  _292
REMARK  105  A    between atoms: _294  and  _296
REMARK  106  A    between atoms: _296  and  _297
REMARK  107  A    between atoms: _296  and  _299
REMARK  108  A    between atoms: _299  and  _300
REMARK  109  A    between atoms: _302  and  _304
REMARK  110  A    between atoms: _304  and  _305
REMARK  111  A    between atoms: _304  and  _307
REMARK  112  A    between atoms: _307  and  _308
REMARK  113  A    between atoms: _311  and  _313
REMARK  114  A    between atoms: _313  and  _314
REMARK  115  A    between atoms: _313  and  _316
REMARK  116  A    between atoms: _316  and  _317
REMARK  117  A    between atoms: _320  and  _322
REMARK  118  A    between atoms: _322  and  _323
REMARK  119  A    between atoms: _322  and  _325
REMARK  120  A    between atoms: _325  and  _326
REMARK  121  A    between atoms: _330  and  _331
REMARK  122  A    between atoms: _337  and  _338
REMARK  123  A    between atoms: _343  and  _345
REMARK  124  A    between atoms: _345  and  _346
REMARK  125  A    between atoms: _345  and  _348
REMARK  126  A    between atoms: _348  and  _349
REMARK  127  A    between atoms: _352  and  _354
REMARK  128  A    between atoms: _354  and  _355
REMARK  129  A    between atoms: _354  and  _357
REMARK  130  A    between atoms: _357  and  _358
REMARK  131  A    between atoms: _361  and  _363
REMARK  132  A    between atoms: _363  and  _364
REMARK  133  A    between atoms: _363  and  _366
REMARK  134  A    between atoms: _368  and  _370
REMARK  135  A    between atoms: _370  and  _371
REMARK  136  A    between atoms: _370  and  _373
REMARK  137  A    between atoms: _376  and  _378
REMARK  138  A    between atoms: _378  and  _379
REMARK  139  A    between atoms: _378  and  _381
REMARK  140  A    between atoms: _381  and  _382
REMARK  141  A    between atoms: _392  and  _394
REMARK  142  A    between atoms: _394  and  _395
REMARK  143  A    between atoms: _394  and  _397
REMARK  144  A    between atoms: _397  and  _398
REMARK  145  A    between atoms: _403  and  _405
REMARK  146  A    between atoms: _405  and  _406
REMARK  147  A    between atoms: _405  and  _408
REMARK  148  A    between atoms: _408  and  _409
REMARK  149  A    between atoms: _409  and  _410
REMARK  150  A    between atoms: _410  and  _411
REMARK                            x       y       z     vdW  Elec       q    Type
REMARK                         _______ _______ _______ _____ _____    ______ ____
ROOT
ATOM      1  O   HOH     1      -0.585  14.777  15.674  0.00  0.00    +0.000 OA
ENDROOT
TORSDOF 0
REMARK  Name = ../refined-set-2016/3ibi/3ibi_pocket.pdb
REMARK  150 active torsions:
REMARK  status: ('A' for Active; 'I' for Inactive)
REMARK    1  A    between atoms: _1  and  _3
REMARK    2  A    between atoms: _3  and  _4
REMARK    3  A    between atoms: _3  and  _6
REMARK    4  A    between atoms: _6  and  _7
REMARK    5  A    between atoms: _17  and  _19
REMARK    6  A    between atoms: _19  and  _20
REMARK    7  A    between atoms: _19  and  _22
REMARK    8  A    between atoms: _22  and  _23
REMARK    9  A    between atoms: _28  and  _29
REMARK   10  A    between atoms: _31  and  _33
REMARK   11  A    between atoms: _33  and  _34
REMARK   12  A    between atoms: _33  and  _36
REMARK   13  A    between atoms: _36  and  _37
REMARK   14  A    between atoms: _40  and  _41
REMARK   15  A    between atoms: _46  and  _48
REMARK   16  A    between atoms: _48  and  _49
REMARK   17  A    between atoms: _48  and  _51
REMARK   18  A    between atoms: _51  and  _52
REMARK   19  A    between atoms: _57  and  _59
REMARK   20  A    between atoms: _59  and  _60
REMARK   21  A    between atoms: _63  and  _65
REMARK   22  A    between atoms: _65  and  _66
REMARK   23  A    between atoms: _65  and  _68
REMARK   24  A    between atoms: _68  and  _69
REMARK   25  A    between atoms: _74  and  _76
REMARK   26  A    between atoms: _76  and  _77
REMARK   27  A    between atoms: _76  and  _79
REMARK   28  A    between atoms: _79  and  _80
REMARK   29  A    between atoms: _83  and  _85
REMARK   30  A    between atoms: _85  and  _86
REMARK   31  A    between atoms: _85  and  _88
REMARK   32  A    between atoms: _88  and  _89
REMARK   33  A    between atoms: _89  and  _90
REMARK   34  A    between atoms: _95  and  _97
REMARK   35  A    between atoms: _97  and  _98
REMARK   36  A    between atoms: _97  and  _100
REMARK   37  A    between atoms: _100  and  _101
REMARK   38  A    between atoms: _107  and  _109
REMARK   39  A    between atoms: _120  and  _123
REMARK   40  A    between atoms: _123  and  _124
REMARK   41  A    between atoms: _132  and  _133
REMARK   42  A    between atoms: _141  and  _143
REMARK   43  A    between atoms: _143  and  _144
REMARK   44  A    between atoms: _143  and  _146
REMARK   45  A    between atoms: _146  and  _147
REMARK   46  A    between atoms: _147  and  _148
REMARK   47  A    between atoms: _151  and  _153
REMARK   48  A    between atoms: _153  and  _154
REMARK   49  A    between atoms: _153  and  _156
REMARK   50  A    between atoms: _156  and  _157
REMARK   51  A    between atoms: _162  and  _164
REMARK   52  A    between atoms: _164  and  _165
REMARK   53  A    between atoms: _164  and  _167
REMARK   54  A    between atoms: _167  and  _168
REMARK   55  A    between atoms: _168  and  _169
REMARK   56  A    between atoms: _172  and  _174
REMARK   57  A    between atoms: _174  and  _175
REMARK   58  A    between atoms: _174  and  _177
REMARK   59  A    between atoms: _177  and  _178
REMARK   60  A    between atoms: _181  and  _183
REMARK   61  A    between atoms: _183  and  _184
REMARK   62  A    between atoms: _183  and  _186
REMARK   63  A    between atoms: _186  and  _187
REMARK   64  A    between atoms: _188  and  ZN_420
REMARK   65  A    between atoms: _192  and  _194
REMARK   66  A    between atoms: _194  and  _195
REMARK   67  A    between atoms: _194  and  _197
REMARK   68  A    between atoms: _197  and  _198
REMARK   69  A    between atoms: _201  and  _203
REMARK   70  A    between atoms: _203  and  _204
REMARK   71  A    between atoms: _203  and  _206
REMARK   72  A    between atoms: _209  and  _211
REMARK   73  A    between atoms: _211  and  _212
REMARK   74  A    between atoms: _211  and  _214
REMARK   75  A    between atoms: _214  and  _215
REMARK   76  A    between atoms: _220  and  _222
REMARK   77  A    between atoms: _222  and  _223
REMARK   78  A    between atoms: _222  and  _225
REMARK   79  A    between atoms: _225  and  _226
REMARK   80  A    between atoms: _232  and  _234
REMARK   81  A    between atoms: _234  and  _235
REMARK   82  A    between atoms: _237  and  _239
REMARK   83  A    between atoms: _239  and  _240
REMARK   84  A    between atoms: _239  and  _242
REMARK   85  A    between atoms: _245  and  _247
REMARK   86  A    between atoms: _247  and  _248
REMARK   87  A    between atoms: _247  and  _250
REMARK   88  A    between atoms: _250  and  _251
REMARK   89  A    between atoms: _251  and  _252
REMARK   90  A    between atoms: _257  and  _259
REMARK   91  A    between atoms: _259  and  _260
REMARK   92  A    between atoms: _259  and  _262
REMARK   93  A    between atoms: _262  and  _263
REMARK   94  A    between atoms: _266  and  _268
REMARK   95  A    between atoms: _268  and  _269
REMARK   96  A    between atoms: _272  and  _274
REMARK   97  A    between atoms: _274  and  _275
REMARK   98  A    between atoms: _274  and  _277
REMARK   99  A    between atoms: _280  and  _282
REMARK  100  A    between atoms: _282  and  _283
REMARK  101  A    between atoms: _282  and  _285
REMARK  102  A    between atoms: _285  and  _286
REMARK  103  A    between atoms: _289  and  _291
REMARK  104  A    between atoms: _291  and  _292
REMARK  105  A    between atoms: _294  and  _296
REMARK  106  A    between atoms: _296  and  _297
REMARK  107  A    between atoms: _296  and  _299
REMARK  108  A    between atoms: _299  and  _300
REMARK  109  A    between atoms: _302  and  _304
REMARK  110  A    between atoms: _304  and  _305
REMARK  111  A    between atoms: _304  and  _307
REMARK  112  A    between atoms: _307  and  _308
REMARK  113  A    between atoms: _311  and  _313
REMARK  114  A    between atoms: _313  and  _314
REMARK  115  A    between atoms: _313  and  _316
REMARK  116  A    between atoms: _316  and  _317
REMARK  117  A    between atoms: _320  and  _322
REMARK  118  A    between atoms: _322  and  _323
REMARK  119  A    between atoms: _322  and  _325
REMARK  120  A    between atoms: _325  and  _326
REMARK  121  A    between atoms: _330  and  _331
REMARK  122  A    between atoms: _337  and  _338
REMARK  123  A    between atoms: _343  and  _345
REMARK  124  A    between atoms: _345  and  _346
REMARK  125  A    between atoms: _345  and  _348
REMARK  126  A    between atoms: _348  and  _349
REMARK  127  A    between atoms: _352  and  _354
REMARK  128  A    between atoms: _354  and  _355
REMARK  129  A    between atoms: _354  and  _357
REMARK  130  A    between atoms: _357  and  _358
REMARK  131  A    between atoms: _361  and  _363
REMARK  132  A    between atoms: _363  and  _364
REMARK  133  A    between atoms: _363  and  _366
REMARK  134  A    between atoms: _368  and  _370
REMARK  135  A    between atoms: _370  and  _371
REMARK  136  A    between atoms: _370  and  _373
REMARK  137  A    between atoms: _376  and  _378
REMARK  138  A    between atoms: _378  and  _379
REMARK  139  A    between atoms: _378  and  _381
REMARK  140  A    between atoms: _381  and  _382
REMARK  141  A    between atoms: _392  and  _394
REMARK  142  A    between atoms: _394  and  _395
REMARK  143  A    between atoms: _394  and  _397
REMARK  144  A    between atoms: _397  and  _398
REMARK  145  A    between atoms: _403  and  _405
REMARK  146  A    between atoms: _405  and  _406
REMARK  147  A    between atoms: _405  and  _408
REMARK  148  A    between atoms: _408  and  _409
REMARK  149  A    between atoms: _409  and  _410
REMARK  150  A    between atoms: _410  and  _411
REMARK                            x       y       z     vdW  Elec       q    Type
REMARK                         _______ _______ _______ _____ _____    ______ ____
ROOT
ATOM      1  O   HOH     1      -1.146   1.579  11.457  0.00  0.00    +0.000 OA
ENDROOT
TORSDOF 0
REMARK  Name = ../refined-set-2016/3ibi/3ibi_pocket.pdb
REMARK  150 active torsions:
REMARK  status: ('A' for Active; 'I' for Inactive)
REMARK    1  A    between atoms: _1  and  _3
REMARK    2  A    between atoms: _3  and  _4
REMARK    3  A    between atoms: _3  and  _6
REMARK    4  A    between atoms: _6  and  _7
REMARK    5  A    between atoms: _17  and  _19
REMARK    6  A    between atoms: _19  and  _20
REMARK    7  A    between atoms: _19  and  _22
REMARK    8  A    between atoms: _22  and  _23
REMARK    9  A    between atoms: _28  and  _29
REMARK   10  A    between atoms: _31  and  _33
REMARK   11  A    between atoms: _33  and  _34
REMARK   12  A    between atoms: _33  and  _36
REMARK   13  A    between atoms: _36  and  _37
REMARK   14  A    between atoms: _40  and  _41
REMARK   15  A    between atoms: _46  and  _48
REMARK   16  A    between atoms: _48  and  _49
REMARK   17  A    between atoms: _48  and  _51
REMARK   18  A    between atoms: _51  and  _52
REMARK   19  A    between atoms: _57  and  _59
REMARK   20  A    between atoms: _59  and  _60
REMARK   21  A    between atoms: _63  and  _65
REMARK   22  A    between atoms: _65  and  _66
REMARK   23  A    between atoms: _65  and  _68
REMARK   24  A    between atoms: _68  and  _69
REMARK   25  A    between atoms: _74  and  _76
REMARK   26  A    between atoms: _76  and  _77
REMARK   27  A    between atoms: _76  and  _79
REMARK   28  A    between atoms: _79  and  _80
REMARK   29  A    between atoms: _83  and  _85
REMARK   30  A    between atoms: _85  and  _86
REMARK   31  A    between atoms: _85  and  _88
REMARK   32  A    between atoms: _88  and  _89
REMARK   33  A    between atoms: _89  and  _90
REMARK   34  A    between atoms: _95  and  _97
REMARK   35  A    between atoms: _97  and  _98
REMARK   36  A    between atoms: _97  and  _100
REMARK   37  A    between atoms: _100  and  _101
REMARK   38  A    between atoms: _107  and  _109
REMARK   39  A    between atoms: _120  and  _123
REMARK   40  A    between atoms: _123  and  _124
REMARK   41  A    between atoms: _132  and  _133
REMARK   42  A    between atoms: _141  and  _143
REMARK   43  A    between atoms: _143  and  _144
REMARK   44  A    between atoms: _143  and  _146
REMARK   45  A    between atoms: _146  and  _147
REMARK   46  A    between atoms: _147  and  _148
REMARK   47  A    between atoms: _151  and  _153
REMARK   48  A    between atoms: _153  and  _154
REMARK   49  A    between atoms: _153  and  _156
REMARK   50  A    between atoms: _156  and  _157
REMARK   51  A    between atoms: _162  and  _164
REMARK   52  A    between atoms: _164  and  _165
REMARK   53  A    between atoms: _164  and  _167
REMARK   54  A    between atoms: _167  and  _168
REMARK   55  A    between atoms: _168  and  _169
REMARK   56  A    between atoms: _172  and  _174
REMARK   57  A    between atoms: _174  and  _175
REMARK   58  A    between atoms: _174  and  _177
REMARK   59  A    between atoms: _177  and  _178
REMARK   60  A    between atoms: _181  and  _183
REMARK   61  A    between atoms: _183  and  _184
REMARK   62  A    between atoms: _183  and  _186
REMARK   63  A    between atoms: _186  and  _187
REMARK   64  A    between atoms: _188  and  ZN_420
REMARK   65  A    between atoms: _192  and  _194
REMARK   66  A    between atoms: _194  and  _195
REMARK   67  A    between atoms: _194  and  _197
REMARK   68  A    between atoms: _197  and  _198
REMARK   69  A    between atoms: _201  and  _203
REMARK   70  A    between atoms: _203  and  _204
REMARK   71  A    between atoms: _203  and  _206
REMARK   72  A    between atoms: _209  and  _211
REMARK   73  A    between atoms: _211  and  _212
REMARK   74  A    between atoms: _211  and  _214
REMARK   75  A    between atoms: _214  and  _215
REMARK   76  A    between atoms: _220  and  _222
REMARK   77  A    between atoms: _222  and  _223
REMARK   78  A    between atoms: _222  and  _225
REMARK   79  A    between atoms: _225  and  _226
REMARK   80  A    between atoms: _232  and  _234
REMARK   81  A    between atoms: _234  and  _235
REMARK   82  A    between atoms: _237  and  _239
REMARK   83  A    between atoms: _239  and  _240
REMARK   84  A    between atoms: _239  and  _242
REMARK   85  A    between atoms: _245  and  _247
REMARK   86  A    between atoms: _247  and  _248
REMARK   87  A    between atoms: _247  and  _250
REMARK   88  A    between atoms: _250  and  _251
REMARK   89  A    between atoms: _251  and  _252
REMARK   90  A    between atoms: _257  and  _259
REMARK   91  A    between atoms: _259  and  _260
REMARK   92  A    between atoms: _259  and  _262
REMARK   93  A    between atoms: _262  and  _263
REMARK   94  A    between atoms: _266  and  _268
REMARK   95  A    between atoms: _268  and  _269
REMARK   96  A    between atoms: _272  and  _274
REMARK   97  A    between atoms: _274  and  _275
REMARK   98  A    between atoms: _274  and  _277
REMARK   99  A    between atoms: _280  and  _282
REMARK  100  A    between atoms: _282  and  _283
REMARK  101  A    between atoms: _282  and  _285
REMARK  102  A    between atoms: _285  and  _286
REMARK  103  A    between atoms: _289  and  _291
REMARK  104  A    between atoms: _291  and  _292
REMARK  105  A    between atoms: _294  and  _296
REMARK  106  A    between atoms: _296  and  _297
REMARK  107  A    between atoms: _296  and  _299
REMARK  108  A    between atoms: _299  and  _300
REMARK  109  A    between atoms: _302  and  _304
REMARK  110  A    between atoms: _304  and  _305
REMARK  111  A    between atoms: _304  and  _307
REMARK  112  A    between atoms: _307  and  _308
REMARK  113  A    between atoms: _311  and  _313
REMARK  114  A    between atoms: _313  and  _314
REMARK  115  A    between atoms: _313  and  _316
REMARK  116  A    between atoms: _316  and  _317
REMARK  117  A    between atoms: _320  and  _322
REMARK  118  A    between atoms: _322  and  _323
REMARK  119  A    between atoms: _322  and  _325
REMARK  120  A    between atoms: _325  and  _326
REMARK  121  A    between atoms: _330  and  _331
REMARK  122  A    between atoms: _337  and  _338
REMARK  123  A    between atoms: _343  and  _345
REMARK  124  A    between atoms: _345  and  _346
REMARK  125  A    between atoms: _345  and  _348
REMARK  126  A    between atoms: _348  and  _349
REMARK  127  A    between atoms: _352  and  _354
REMARK  128  A    between atoms: _354  and  _355
REMARK  129  A    between atoms: _354  and  _357
REMARK  130  A    between atoms: _357  and  _358
REMARK  131  A    between atoms: _361  and  _363
REMARK  132  A    between atoms: _363  and  _364
REMARK  133  A    between atoms: _363  and  _366
REMARK  134  A    between atoms: _368  and  _370
REMARK  135  A    between atoms: _370  and  _371
REMARK  136  A    between atoms: _370  and  _373
REMARK  137  A    between atoms: _376  and  _378
REMARK  138  A    between atoms: _378  and  _379
REMARK  139  A    between atoms: _378  and  _381
REMARK  140  A    between atoms: _381  and  _382
REMARK  141  A    between atoms: _392  and  _394
REMARK  142  A    between atoms: _394  and  _395
REMARK  143  A    between atoms: _394  and  _397
REMARK  144  A    between atoms: _397  and  _398
REMARK  145  A    between atoms: _403  and  _405
REMARK  146  A    between atoms: _405  and  _406
REMARK  147  A    between atoms: _405  and  _408
REMARK  148  A    between atoms: _408  and  _409
REMARK  149  A    between atoms: _409  and  _410
REMARK  150  A    between atoms: _410  and  _411
REMARK                            x       y       z     vdW  Elec       q    Type
REMARK                         _______ _______ _______ _____ _____    ______ ____
ROOT
ATOM      1  O   HOH     1      -8.446   7.417   7.794  0.00  0.00    +0.000 OA
ENDROOT
TORSDOF 0
REMARK  Name = ../refined-set-2016/3ibi/3ibi_pocket.pdb
REMARK  150 active torsions:
REMARK  status: ('A' for Active; 'I' for Inactive)
REMARK    1  A    between atoms: _1  and  _3
REMARK    2  A    between atoms: _3  and  _4
REMARK    3  A    between atoms: _3  and  _6
REMARK    4  A    between atoms: _6  and  _7
REMARK    5  A    between atoms: _17  and  _19
REMARK    6  A    between atoms: _19  and  _20
REMARK    7  A    between atoms: _19  and  _22
REMARK    8  A    between atoms: _22  and  _23
REMARK    9  A    between atoms: _28  and  _29
REMARK   10  A    between atoms: _31  and  _33
REMARK   11  A    between atoms: _33  and  _34
REMARK   12  A    between atoms: _33  and  _36
REMARK   13  A    between atoms: _36  and  _37
REMARK   14  A    between atoms: _40  and  _41
REMARK   15  A    between atoms: _46  and  _48
REMARK   16  A    between atoms: _48  and  _49
REMARK   17  A    between atoms: _48  and  _51
REMARK   18  A    between atoms: _51  and  _52
REMARK   19  A    between atoms: _57  and  _59
REMARK   20  A    between atoms: _59  and  _60
REMARK   21  A    between atoms: _63  and  _65
REMARK   22  A    between atoms: _65  and  _66
REMARK   23  A    between atoms: _65  and  _68
REMARK   24  A    between atoms: _68  and  _69
REMARK   25  A    between atoms: _74  and  _76
REMARK   26  A    between atoms: _76  and  _77
REMARK   27  A    between atoms: _76  and  _79
REMARK   28  A    between atoms: _79  and  _80
REMARK   29  A    between atoms: _83  and  _85
REMARK   30  A    between atoms: _85  and  _86
REMARK   31  A    between atoms: _85  and  _88
REMARK   32  A    between atoms: _88  and  _89
REMARK   33  A    between atoms: _89  and  _90
REMARK   34  A    between atoms: _95  and  _97
REMARK   35  A    between atoms: _97  and  _98
REMARK   36  A    between atoms: _97  and  _100
REMARK   37  A    between atoms: _100  and  _101
REMARK   38  A    between atoms: _107  and  _109
REMARK   39  A    between atoms: _120  and  _123
REMARK   40  A    between atoms: _123  and  _124
REMARK   41  A    between atoms: _132  and  _133
REMARK   42  A    between atoms: _141  and  _143
REMARK   43  A    between atoms: _143  and  _144
REMARK   44  A    between atoms: _143  and  _146
REMARK   45  A    between atoms: _146  and  _147
REMARK   46  A    between atoms: _147  and  _148
REMARK   47  A    between atoms: _151  and  _153
REMARK   48  A    between atoms: _153  and  _154
REMARK   49  A    between atoms: _153  and  _156
REMARK   50  A    between atoms: _156  and  _157
REMARK   51  A    between atoms: _162  and  _164
REMARK   52  A    between atoms: _164  and  _165
REMARK   53  A    between atoms: _164  and  _167
REMARK   54  A    between atoms: _167  and  _168
REMARK   55  A    between atoms: _168  and  _169
REMARK   56  A    between atoms: _172  and  _174
REMARK   57  A    between atoms: _174  and  _175
REMARK   58  A    between atoms: _174  and  _177
REMARK   59  A    between atoms: _177  and  _178
REMARK   60  A    between atoms: _181  and  _183
REMARK   61  A    between atoms: _183  and  _184
REMARK   62  A    between atoms: _183  and  _186
REMARK   63  A    between atoms: _186  and  _187
REMARK   64  A    between atoms: _188  and  ZN_420
REMARK   65  A    between atoms: _192  and  _194
REMARK   66  A    between atoms: _194  and  _195
REMARK   67  A    between atoms: _194  and  _197
REMARK   68  A    between atoms: _197  and  _198
REMARK   69  A    between atoms: _201  and  _203
REMARK   70  A    between atoms: _203  and  _204
REMARK   71  A    between atoms: _203  and  _206
REMARK   72  A    between atoms: _209  and  _211
REMARK   73  A    between atoms: _211  and  _212
REMARK   74  A    between atoms: _211  and  _214
REMARK   75  A    between atoms: _214  and  _215
REMARK   76  A    between atoms: _220  and  _222
REMARK   77  A    between atoms: _222  and  _223
REMARK   78  A    between atoms: _222  and  _225
REMARK   79  A    between atoms: _225  and  _226
REMARK   80  A    between atoms: _232  and  _234
REMARK   81  A    between atoms: _234  and  _235
REMARK   82  A    between atoms: _237  and  _239
REMARK   83  A    between atoms: _239  and  _240
REMARK   84  A    between atoms: _239  and  _242
REMARK   85  A    between atoms: _245  and  _247
REMARK   86  A    between atoms: _247  and  _248
REMARK   87  A    between atoms: _247  and  _250
REMARK   88  A    between atoms: _250  and  _251
REMARK   89  A    between atoms: _251  and  _252
REMARK   90  A    between atoms: _257  and  _259
REMARK   91  A    between atoms: _259  and  _260
REMARK   92  A    between atoms: _259  and  _262
REMARK   93  A    between atoms: _262  and  _263
REMARK   94  A    between atoms: _266  and  _268
REMARK   95  A    between atoms: _268  and  _269
REMARK   96  A    between atoms: _272  and  _274
REMARK   97  A    between atoms: _274  and  _275
REMARK   98  A    between atoms: _274  and  _277
REMARK   99  A    between atoms: _280  and  _282
REMARK  100  A    between atoms: _282  and  _283
REMARK  101  A    between atoms: _282  and  _285
REMARK  102  A    between atoms: _285  and  _286
REMARK  103  A    between atoms: _289  and  _291
REMARK  104  A    between atoms: _291  and  _292
REMARK  105  A    between atoms: _294  and  _296
REMARK  106  A    between atoms: _296  and  _297
REMARK  107  A    between atoms: _296  and  _299
REMARK  108  A    between atoms: _299  and  _300
REMARK  109  A    between atoms: _302  and  _304
REMARK  110  A    between atoms: _304  and  _305
REMARK  111  A    between atoms: _304  and  _307
REMARK  112  A    between atoms: _307  and  _308
REMARK  113  A    between atoms: _311  and  _313
REMARK  114  A    between atoms: _313  and  _314
REMARK  115  A    between atoms: _313  and  _316
REMARK  116  A    between atoms: _316  and  _317
REMARK  117  A    between atoms: _320  and  _322
REMARK  118  A    between atoms: _322  and  _323
REMARK  119  A    between atoms: _322  and  _325
REMARK  120  A    between atoms: _325  and  _326
REMARK  121  A    between atoms: _330  and  _331
REMARK  122  A    between atoms: _337  and  _338
REMARK  123  A    between atoms: _343  and  _345
REMARK  124  A    between atoms: _345  and  _346
REMARK  125  A    between atoms: _345  and  _348
REMARK  126  A    between atoms: _348  and  _349
REMARK  127  A    between atoms: _352  and  _354
REMARK  128  A    between atoms: _354  and  _355
REMARK  129  A    between atoms: _354  and  _357
REMARK  130  A    between atoms: _357  and  _358
REMARK  131  A    between atoms: _361  and  _363
REMARK  132  A    between atoms: _363  and  _364
REMARK  133  A    between atoms: _363  and  _366
REMARK  134  A    between atoms: _368  and  _370
REMARK  135  A    between atoms: _370  and  _371
REMARK  136  A    between atoms: _370  and  _373
REMARK  137  A    between atoms: _376  and  _378
REMARK  138  A    between atoms: _378  and  _379
REMARK  139  A    between atoms: _378  and  _381
REMARK  140  A    between atoms: _381  and  _382
REMARK  141  A    between atoms: _392  and  _394
REMARK  142  A    between atoms: _394  and  _395
REMARK  143  A    between atoms: _394  and  _397
REMARK  144  A    between atoms: _397  and  _398
REMARK  145  A    between atoms: _403  and  _405
REMARK  146  A    between atoms: _405  and  _406
REMARK  147  A    between atoms: _405  and  _408
REMARK  148  A    between atoms: _408  and  _409
REMARK  149  A    between atoms: _409  and  _410
REMARK  150  A    between atoms: _410  and  _411
REMARK                            x       y       z     vdW  Elec       q    Type
REMARK                         _______ _______ _______ _____ _____    ______ ____
ROOT
ATOM      1  O   HOH     1      -3.216  -0.508  10.561  0.00  0.00    +0.000 OA
ENDROOT
TORSDOF 0
REMARK  Name = ../refined-set-2016/3ibi/3ibi_pocket.pdb
REMARK  150 active torsions:
REMARK  status: ('A' for Active; 'I' for Inactive)
REMARK    1  A    between atoms: _1  and  _3
REMARK    2  A    between atoms: _3  and  _4
REMARK    3  A    between atoms: _3  and  _6
REMARK    4  A    between atoms: _6  and  _7
REMARK    5  A    between atoms: _17  and  _19
REMARK    6  A    between atoms: _19  and  _20
REMARK    7  A    between atoms: _19  and  _22
REMARK    8  A    between atoms: _22  and  _23
REMARK    9  A    between atoms: _28  and  _29
REMARK   10  A    between atoms: _31  and  _33
REMARK   11  A    between atoms: _33  and  _34
REMARK   12  A    between atoms: _33  and  _36
REMARK   13  A    between atoms: _36  and  _37
REMARK   14  A    between atoms: _40  and  _41
REMARK   15  A    between atoms: _46  and  _48
REMARK   16  A    between atoms: _48  and  _49
REMARK   17  A    between atoms: _48  and  _51
REMARK   18  A    between atoms: _51  and  _52
REMARK   19  A    between atoms: _57  and  _59
REMARK   20  A    between atoms: _59  and  _60
REMARK   21  A    between atoms: _63  and  _65
REMARK   22  A    between atoms: _65  and  _66
REMARK   23  A    between atoms: _65  and  _68
REMARK   24  A    between atoms: _68  and  _69
REMARK   25  A    between atoms: _74  and  _76
REMARK   26  A    between atoms: _76  and  _77
REMARK   27  A    between atoms: _76  and  _79
REMARK   28  A    between atoms: _79  and  _80
REMARK   29  A    between atoms: _83  and  _85
REMARK   30  A    between atoms: _85  and  _86
REMARK   31  A    between atoms: _85  and  _88
REMARK   32  A    between atoms: _88  and  _89
REMARK   33  A    between atoms: _89  and  _90
REMARK   34  A    between atoms: _95  and  _97
REMARK   35  A    between atoms: _97  and  _98
REMARK   36  A    between atoms: _97  and  _100
REMARK   37  A    between atoms: _100  and  _101
REMARK   38  A    between atoms: _107  and  _109
REMARK   39  A    between atoms: _120  and  _123
REMARK   40  A    between atoms: _123  and  _124
REMARK   41  A    between atoms: _132  and  _133
REMARK   42  A    between atoms: _141  and  _143
REMARK   43  A    between atoms: _143  and  _144
REMARK   44  A    between atoms: _143  and  _146
REMARK   45  A    between atoms: _146  and  _147
REMARK   46  A    between atoms: _147  and  _148
REMARK   47  A    between atoms: _151  and  _153
REMARK   48  A    between atoms: _153  and  _154
REMARK   49  A    between atoms: _153  and  _156
REMARK   50  A    between atoms: _156  and  _157
REMARK   51  A    between atoms: _162  and  _164
REMARK   52  A    between atoms: _164  and  _165
REMARK   53  A    between atoms: _164  and  _167
REMARK   54  A    between atoms: _167  and  _168
REMARK   55  A    between atoms: _168  and  _169
REMARK   56  A    between atoms: _172  and  _174
REMARK   57  A    between atoms: _174  and  _175
REMARK   58  A    between atoms: _174  and  _177
REMARK   59  A    between atoms: _177  and  _178
REMARK   60  A    between atoms: _181  and  _183
REMARK   61  A    between atoms: _183  and  _184
REMARK   62  A    between atoms: _183  and  _186
REMARK   63  A    between atoms: _186  and  _187
REMARK   64  A    between atoms: _188  and  ZN_420
REMARK   65  A    between atoms: _192  and  _194
REMARK   66  A    between atoms: _194  and  _195
REMARK   67  A    between atoms: _194  and  _197
REMARK   68  A    between atoms: _197  and  _198
REMARK   69  A    between atoms: _201  and  _203
REMARK   70  A    between atoms: _203  and  _204
REMARK   71  A    between atoms: _203  and  _206
REMARK   72  A    between atoms: _209  and  _211
REMARK   73  A    between atoms: _211  and  _212
REMARK   74  A    between atoms: _211  and  _214
REMARK   75  A    between atoms: _214  and  _215
REMARK   76  A    between atoms: _220  and  _222
REMARK   77  A    between atoms: _222  and  _223
REMARK   78  A    between atoms: _222  and  _225
REMARK   79  A    between atoms: _225  and  _226
REMARK   80  A    between atoms: _232  and  _234
REMARK   81  A    between atoms: _234  and  _235
REMARK   82  A    between atoms: _237  and  _239
REMARK   83  A    between atoms: _239  and  _240
REMARK   84  A    between atoms: _239  and  _242
REMARK   85  A    between atoms: _245  and  _247
REMARK   86  A    between atoms: _247  and  _248
REMARK   87  A    between atoms: _247  and  _250
REMARK   88  A    between atoms: _250  and  _251
REMARK   89  A    between atoms: _251  and  _252
REMARK   90  A    between atoms: _257  and  _259
REMARK   91  A    between atoms: _259  and  _260
REMARK   92  A    between atoms: _259  and  _262
REMARK   93  A    between atoms: _262  and  _263
REMARK   94  A    between atoms: _266  and  _268
REMARK   95  A    between atoms: _268  and  _269
REMARK   96  A    between atoms: _272  and  _274
REMARK   97  A    between atoms: _274  and  _275
REMARK   98  A    between atoms: _274  and  _277
REMARK   99  A    between atoms: _280  and  _282
REMARK  100  A    between atoms: _282  and  _283
REMARK  101  A    between atoms: _282  and  _285
REMARK  102  A    between atoms: _285  and  _286
REMARK  103  A    between atoms: _289  and  _291
REMARK  104  A    between atoms: _291  and  _292
REMARK  105  A    between atoms: _294  and  _296
REMARK  106  A    between atoms: _296  and  _297
REMARK  107  A    between atoms: _296  and  _299
REMARK  108  A    between atoms: _299  and  _300
REMARK  109  A    between atoms: _302  and  _304
REMARK  110  A    between atoms: _304  and  _305
REMARK  111  A    between atoms: _304  and  _307
REMARK  112  A    between atoms: _307  and  _308
REMARK  113  A    between atoms: _311  and  _313
REMARK  114  A    between atoms: _313  and  _314
REMARK  115  A    between atoms: _313  and  _316
REMARK  116  A    between atoms: _316  and  _317
REMARK  117  A    between atoms: _320  and  _322
REMARK  118  A    between atoms: _322  and  _323
REMARK  119  A    between atoms: _322  and  _325
REMARK  120  A    between atoms: _325  and  _326
REMARK  121  A    between atoms: _330  and  _331
REMARK  122  A    between atoms: _337  and  _338
REMARK  123  A    between atoms: _343  and  _345
REMARK  124  A    between atoms: _345  and  _346
REMARK  125  A    between atoms: _345  and  _348
REMARK  126  A    between atoms: _348  and  _349
REMARK  127  A    between atoms: _352  and  _354
REMARK  128  A    between atoms: _354  and  _355
REMARK  129  A    between atoms: _354  and  _357
REMARK  130  A    between atoms: _357  and  _358
REMARK  131  A    between atoms: _361  and  _363
REMARK  132  A    between atoms: _363  and  _364
REMARK  133  A    between atoms: _363  and  _366
REMARK  134  A    between atoms: _368  and  _370
REMARK  135  A    between atoms: _370  and  _371
REMARK  136  A    between atoms: _370  and  _373
REMARK  137  A    between atoms: _376  and  _378
REMARK  138  A    between atoms: _378  and  _379
REMARK  139  A    between atoms: _378  and  _381
REMARK  140  A    between atoms: _381  and  _382
REMARK  141  A    between atoms: _392  and  _394
REMARK  142  A    between atoms: _394  and  _395
REMARK  143  A    between atoms: _394  and  _397
REMARK  144  A    between atoms: _397  and  _398
REMARK  145  A    between atoms: _403  and  _405
REMARK  146  A    between atoms: _405  and  _406
REMARK  147  A    between atoms: _405  and  _408
REMARK  148  A    between atoms: _408  and  _409
REMARK  149  A    between atoms: _409  and  _410
REMARK  150  A    between atoms: _410  and  _411
REMARK                            x       y       z     vdW  Elec       q    Type
REMARK                         _______ _______ _______ _____ _____    ______ ____
ROOT
ATOM      1  O   HOH     1      -6.628   6.506  10.143  0.00  0.00    +0.000 OA
ENDROOT
TORSDOF 0
REMARK  Name = ../refined-set-2016/3ibi/3ibi_pocket.pdb
REMARK  150 active torsions:
REMARK  status: ('A' for Active; 'I' for Inactive)
REMARK    1  A    between atoms: _1  and  _3
REMARK    2  A    between atoms: _3  and  _4
REMARK    3  A    between atoms: _3  and  _6
REMARK    4  A    between atoms: _6  and  _7
REMARK    5  A    between atoms: _17  and  _19
REMARK    6  A    between atoms: _19  and  _20
REMARK    7  A    between atoms: _19  and  _22
REMARK    8  A    between atoms: _22  and  _23
REMARK    9  A    between atoms: _28  and  _29
REMARK   10  A    between atoms: _31  and  _33
REMARK   11  A    between atoms: _33  and  _34
REMARK   12  A    between atoms: _33  and  _36
REMARK   13  A    between atoms: _36  and  _37
REMARK   14  A    between atoms: _40  and  _41
REMARK   15  A    between atoms: _46  and  _48
REMARK   16  A    between atoms: _48  and  _49
REMARK   17  A    between atoms: _48  and  _51
REMARK   18  A    between atoms: _51  and  _52
REMARK   19  A    between atoms: _57  and  _59
REMARK   20  A    between atoms: _59  and  _60
REMARK   21  A    between atoms: _63  and  _65
REMARK   22  A    between atoms: _65  and  _66
REMARK   23  A    between atoms: _65  and  _68
REMARK   24  A    between atoms: _68  and  _69
REMARK   25  A    between atoms: _74  and  _76
REMARK   26  A    between atoms: _76  and  _77
REMARK   27  A    between atoms: _76  and  _79
REMARK   28  A    between atoms: _79  and  _80
REMARK   29  A    between atoms: _83  and  _85
REMARK   30  A    between atoms: _85  and  _86
REMARK   31  A    between atoms: _85  and  _88
REMARK   32  A    between atoms: _88  and  _89
REMARK   33  A    between atoms: _89  and  _90
REMARK   34  A    between atoms: _95  and  _97
REMARK   35  A    between atoms: _97  and  _98
REMARK   36  A    between atoms: _97  and  _100
REMARK   37  A    between atoms: _100  and  _101
REMARK   38  A    between atoms: _107  and  _109
REMARK   39  A    between atoms: _120  and  _123
REMARK   40  A    between atoms: _123  and  _124
REMARK   41  A    between atoms: _132  and  _133
REMARK   42  A    between atoms: _141  and  _143
REMARK   43  A    between atoms: _143  and  _144
REMARK   44  A    between atoms: _143  and  _146
REMARK   45  A    between atoms: _146  and  _147
REMARK   46  A    between atoms: _147  and  _148
REMARK   47  A    between atoms: _151  and  _153
REMARK   48  A    between atoms: _153  and  _154
REMARK   49  A    between atoms: _153  and  _156
REMARK   50  A    between atoms: _156  and  _157
REMARK   51  A    between atoms: _162  and  _164
REMARK   52  A    between atoms: _164  and  _165
REMARK   53  A    between atoms: _164  and  _167
REMARK   54  A    between atoms: _167  and  _168
REMARK   55  A    between atoms: _168  and  _169
REMARK   56  A    between atoms: _172  and  _174
REMARK   57  A    between atoms: _174  and  _175
REMARK   58  A    between atoms: _174  and  _177
REMARK   59  A    between atoms: _177  and  _178
REMARK   60  A    between atoms: _181  and  _183
REMARK   61  A    between atoms: _183  and  _184
REMARK   62  A    between atoms: _183  and  _186
REMARK   63  A    between atoms: _186  and  _187
REMARK   64  A    between atoms: _188  and  ZN_420
REMARK   65  A    between atoms: _192  and  _194
REMARK   66  A    between atoms: _194  and  _195
REMARK   67  A    between atoms: _194  and  _197
REMARK   68  A    between atoms: _197  and  _198
REMARK   69  A    between atoms: _201  and  _203
REMARK   70  A    between atoms: _203  and  _204
REMARK   71  A    between atoms: _203  and  _206
REMARK   72  A    between atoms: _209  and  _211
REMARK   73  A    between atoms: _211  and  _212
REMARK   74  A    between atoms: _211  and  _214
REMARK   75  A    between atoms: _214  and  _215
REMARK   76  A    between atoms: _220  and  _222
REMARK   77  A    between atoms: _222  and  _223
REMARK   78  A    between atoms: _222  and  _225
REMARK   79  A    between atoms: _225  and  _226
REMARK   80  A    between atoms: _232  and  _234
REMARK   81  A    between atoms: _234  and  _235
REMARK   82  A    between atoms: _237  and  _239
REMARK   83  A    between atoms: _239  and  _240
REMARK   84  A    between atoms: _239  and  _242
REMARK   85  A    between atoms: _245  and  _247
REMARK   86  A    between atoms: _247  and  _248
REMARK   87  A    between atoms: _247  and  _250
REMARK   88  A    between atoms: _250  and  _251
REMARK   89  A    between atoms: _251  and  _252
REMARK   90  A    between atoms: _257  and  _259
REMARK   91  A    between atoms: _259  and  _260
REMARK   92  A    between atoms: _259  and  _262
REMARK   93  A    between atoms: _262  and  _263
REMARK   94  A    between atoms: _266  and  _268
REMARK   95  A    between atoms: _268  and  _269
REMARK   96  A    between atoms: _272  and  _274
REMARK   97  A    between atoms: _274  and  _275
REMARK   98  A    between atoms: _274  and  _277
REMARK   99  A    between atoms: _280  and  _282
REMARK  100  A    between atoms: _282  and  _283
REMARK  101  A    between atoms: _282  and  _285
REMARK  102  A    between atoms: _285  and  _286
REMARK  103  A    between atoms: _289  and  _291
REMARK  104  A    between atoms: _291  and  _292
REMARK  105  A    between atoms: _294  and  _296
REMARK  106  A    between atoms: _296  and  _297
REMARK  107  A    between atoms: _296  and  _299
REMARK  108  A    between atoms: _299  and  _300
REMARK  109  A    between atoms: _302  and  _304
REMARK  110  A    between atoms: _304  and  _305
REMARK  111  A    between atoms: _304  and  _307
REMARK  112  A    between atoms: _307  and  _308
REMARK  113  A    between atoms: _311  and  _313
REMARK  114  A    between atoms: _313  and  _314
REMARK  115  A    between atoms: _313  and  _316
REMARK  116  A    between atoms: _316  and  _317
REMARK  117  A    between atoms: _320  and  _322
REMARK  118  A    between atoms: _322  and  _323
REMARK  119  A    between atoms: _322  and  _325
REMARK  120  A    between atoms: _325  and  _326
REMARK  121  A    between atoms: _330  and  _331
REMARK  122  A    between atoms: _337  and  _338
REMARK  123  A    between atoms: _343  and  _345
REMARK  124  A    between atoms: _345  and  _346
REMARK  125  A    between atoms: _345  and  _348
REMARK  126  A    between atoms: _348  and  _349
REMARK  127  A    between atoms: _352  and  _354
REMARK  128  A    between atoms: _354  and  _355
REMARK  129  A    between atoms: _354  and  _357
REMARK  130  A    between atoms: _357  and  _358
REMARK  131  A    between atoms: _361  and  _363
REMARK  132  A    between atoms: _363  and  _364
REMARK  133  A    between atoms: _363  and  _366
REMARK  134  A    between atoms: _368  and  _370
REMARK  135  A    between atoms: _370  and  _371
REMARK  136  A    between atoms: _370  and  _373
REMARK  137  A    between atoms: _376  and  _378
REMARK  138  A    between atoms: _378  and  _379
REMARK  139  A    between atoms: _378  and  _381
REMARK  140  A    between atoms: _381  and  _382
REMARK  141  A    between atoms: _392  and  _394
REMARK  142  A    between atoms: _394  and  _395
REMARK  143  A    between atoms: _394  and  _397
REMARK  144  A    between atoms: _397  and  _398
REMARK  145  A    between atoms: _403  and  _405
REMARK  146  A    between atoms: _405  and  _406
REMARK  147  A    between atoms: _405  and  _408
REMARK  148  A    between atoms: _408  and  _409
REMARK  149  A    between atoms: _409  and  _410
REMARK  150  A    between atoms: _410  and  _411
REMARK                            x       y       z     vdW  Elec       q    Type
REMARK                         _______ _______ _______ _____ _____    ______ ____
ROOT
ATOM      1  O   HOH     1      -5.187   1.192  10.418  0.00  0.00    +0.000 OA
ENDROOT
TORSDOF 0
REMARK  Name = ../refined-set-2016/3ibi/3ibi_pocket.pdb
REMARK  150 active torsions:
REMARK  status: ('A' for Active; 'I' for Inactive)
REMARK    1  A    between atoms: _1  and  _3
REMARK    2  A    between atoms: _3  and  _4
REMARK    3  A    between atoms: _3  and  _6
REMARK    4  A    between atoms: _6  and  _7
REMARK    5  A    between atoms: _17  and  _19
REMARK    6  A    between atoms: _19  and  _20
REMARK    7  A    between atoms: _19  and  _22
REMARK    8  A    between atoms: _22  and  _23
REMARK    9  A    between atoms: _28  and  _29
REMARK   10  A    between atoms: _31  and  _33
REMARK   11  A    between atoms: _33  and  _34
REMARK   12  A    between atoms: _33  and  _36
REMARK   13  A    between atoms: _36  and  _37
REMARK   14  A    between atoms: _40  and  _41
REMARK   15  A    between atoms: _46  and  _48
REMARK   16  A    between atoms: _48  and  _49
REMARK   17  A    between atoms: _48  and  _51
REMARK   18  A    between atoms: _51  and  _52
REMARK   19  A    between atoms: _57  and  _59
REMARK   20  A    between atoms: _59  and  _60
REMARK   21  A    between atoms: _63  and  _65
REMARK   22  A    between atoms: _65  and  _66
REMARK   23  A    between atoms: _65  and  _68
REMARK   24  A    between atoms: _68  and  _69
REMARK   25  A    between atoms: _74  and  _76
REMARK   26  A    between atoms: _76  and  _77
REMARK   27  A    between atoms: _76  and  _79
REMARK   28  A    between atoms: _79  and  _80
REMARK   29  A    between atoms: _83  and  _85
REMARK   30  A    between atoms: _85  and  _86
REMARK   31  A    between atoms: _85  and  _88
REMARK   32  A    between atoms: _88  and  _89
REMARK   33  A    between atoms: _89  and  _90
REMARK   34  A    between atoms: _95  and  _97
REMARK   35  A    between atoms: _97  and  _98
REMARK   36  A    between atoms: _97  and  _100
REMARK   37  A    between atoms: _100  and  _101
REMARK   38  A    between atoms: _107  and  _109
REMARK   39  A    between atoms: _120  and  _123
REMARK   40  A    between atoms: _123  and  _124
REMARK   41  A    between atoms: _132  and  _133
REMARK   42  A    between atoms: _141  and  _143
REMARK   43  A    between atoms: _143  and  _144
REMARK   44  A    between atoms: _143  and  _146
REMARK   45  A    between atoms: _146  and  _147
REMARK   46  A    between atoms: _147  and  _148
REMARK   47  A    between atoms: _151  and  _153
REMARK   48  A    between atoms: _153  and  _154
REMARK   49  A    between atoms: _153  and  _156
REMARK   50  A    between atoms: _156  and  _157
REMARK   51  A    between atoms: _162  and  _164
REMARK   52  A    between atoms: _164  and  _165
REMARK   53  A    between atoms: _164  and  _167
REMARK   54  A    between atoms: _167  and  _168
REMARK   55  A    between atoms: _168  and  _169
REMARK   56  A    between atoms: _172  and  _174
REMARK   57  A    between atoms: _174  and  _175
REMARK   58  A    between atoms: _174  and  _177
REMARK   59  A    between atoms: _177  and  _178
REMARK   60  A    between atoms: _181  and  _183
REMARK   61  A    between atoms: _183  and  _184
REMARK   62  A    between atoms: _183  and  _186
REMARK   63  A    between atoms: _186  and  _187
REMARK   64  A    between atoms: _188  and  ZN_420
REMARK   65  A    between atoms: _192  and  _194
REMARK   66  A    between atoms: _194  and  _195
REMARK   67  A    between atoms: _194  and  _197
REMARK   68  A    between atoms: _197  and  _198
REMARK   69  A    between atoms: _201  and  _203
REMARK   70  A    between atoms: _203  and  _204
REMARK   71  A    between atoms: _203  and  _206
REMARK   72  A    between atoms: _209  and  _211
REMARK   73  A    between atoms: _211  and  _212
REMARK   74  A    between atoms: _211  and  _214
REMARK   75  A    between atoms: _214  and  _215
REMARK   76  A    between atoms: _220  and  _222
REMARK   77  A    between atoms: _222  and  _223
REMARK   78  A    between atoms: _222  and  _225
REMARK   79  A    between atoms: _225  and  _226
REMARK   80  A    between atoms: _232  and  _234
REMARK   81  A    between atoms: _234  and  _235
REMARK   82  A    between atoms: _237  and  _239
REMARK   83  A    between atoms: _239  and  _240
REMARK   84  A    between atoms: _239  and  _242
REMARK   85  A    between atoms: _245  and  _247
REMARK   86  A    between atoms: _247  and  _248
REMARK   87  A    between atoms: _247  and  _250
REMARK   88  A    between atoms: _250  and  _251
REMARK   89  A    between atoms: _251  and  _252
REMARK   90  A    between atoms: _257  and  _259
REMARK   91  A    between atoms: _259  and  _260
REMARK   92  A    between atoms: _259  and  _262
REMARK   93  A    between atoms: _262  and  _263
REMARK   94  A    between atoms: _266  and  _268
REMARK   95  A    between atoms: _268  and  _269
REMARK   96  A    between atoms: _272  and  _274
REMARK   97  A    between atoms: _274  and  _275
REMARK   98  A    between atoms: _274  and  _277
REMARK   99  A    between atoms: _280  and  _282
REMARK  100  A    between atoms: _282  and  _283
REMARK  101  A    between atoms: _282  and  _285
REMARK  102  A    between atoms: _285  and  _286
REMARK  103  A    between atoms: _289  and  _291
REMARK  104  A    between atoms: _291  and  _292
REMARK  105  A    between atoms: _294  and  _296
REMARK  106  A    between atoms: _296  and  _297
REMARK  107  A    between atoms: _296  and  _299
REMARK  108  A    between atoms: _299  and  _300
REMARK  109  A    between atoms: _302  and  _304
REMARK  110  A    between atoms: _304  and  _305
REMARK  111  A    between atoms: _304  and  _307
REMARK  112  A    between atoms: _307  and  _308
REMARK  113  A    between atoms: _311  and  _313
REMARK  114  A    between atoms: _313  and  _314
REMARK  115  A    between atoms: _313  and  _316
REMARK  116  A    between atoms: _316  and  _317
REMARK  117  A    between atoms: _320  and  _322
REMARK  118  A    between atoms: _322  and  _323
REMARK  119  A    between atoms: _322  and  _325
REMARK  120  A    between atoms: _325  and  _326
REMARK  121  A    between atoms: _330  and  _331
REMARK  122  A    between atoms: _337  and  _338
REMARK  123  A    between atoms: _343  and  _345
REMARK  124  A    between atoms: _345  and  _346
REMARK  125  A    between atoms: _345  and  _348
REMARK  126  A    between atoms: _348  and  _349
REMARK  127  A    between atoms: _352  and  _354
REMARK  128  A    between atoms: _354  and  _355
REMARK  129  A    between atoms: _354  and  _357
REMARK  130  A    between atoms: _357  and  _358
REMARK  131  A    between atoms: _361  and  _363
REMARK  132  A    between atoms: _363  and  _364
REMARK  133  A    between atoms: _363  and  _366
REMARK  134  A    between atoms: _368  and  _370
REMARK  135  A    between atoms: _370  and  _371
REMARK  136  A    between atoms: _370  and  _373
REMARK  137  A    between atoms: _376  and  _378
REMARK  138  A    between atoms: _378  and  _379
REMARK  139  A    between atoms: _378  and  _381
REMARK  140  A    between atoms: _381  and  _382
REMARK  141  A    between atoms: _392  and  _394
REMARK  142  A    between atoms: _394  and  _395
REMARK  143  A    between atoms: _394  and  _397
REMARK  144  A    between atoms: _397  and  _398
REMARK  145  A    between atoms: _403  and  _405
REMARK  146  A    between atoms: _405  and  _406
REMARK  147  A    between atoms: _405  and  _408
REMARK  148  A    between atoms: _408  and  _409
REMARK  149  A    between atoms: _409  and  _410
REMARK  150  A    between atoms: _410  and  _411
REMARK                            x       y       z     vdW  Elec       q    Type
REMARK                         _______ _______ _______ _____ _____    ______ ____
ROOT
ATOM      1  O   HOH     1      -1.496   3.855   7.570  0.00  0.00    +0.000 OA
ENDROOT
TORSDOF 0
REMARK  Name = ../refined-set-2016/3ibi/3ibi_pocket.pdb
REMARK  150 active torsions:
REMARK  status: ('A' for Active; 'I' for Inactive)
REMARK    1  A    between atoms: _1  and  _3
REMARK    2  A    between atoms: _3  and  _4
REMARK    3  A    between atoms: _3  and  _6
REMARK    4  A    between atoms: _6  and  _7
REMARK    5  A    between atoms: _17  and  _19
REMARK    6  A    between atoms: _19  and  _20
REMARK    7  A    between atoms: _19  and  _22
REMARK    8  A    between atoms: _22  and  _23
REMARK    9  A    between atoms: _28  and  _29
REMARK   10  A    between atoms: _31  and  _33
REMARK   11  A    between atoms: _33  and  _34
REMARK   12  A    between atoms: _33  and  _36
REMARK   13  A    between atoms: _36  and  _37
REMARK   14  A    between atoms: _40  and  _41
REMARK   15  A    between atoms: _46  and  _48
REMARK   16  A    between atoms: _48  and  _49
REMARK   17  A    between atoms: _48  and  _51
REMARK   18  A    between atoms: _51  and  _52
REMARK   19  A    between atoms: _57  and  _59
REMARK   20  A    between atoms: _59  and  _60
REMARK   21  A    between atoms: _63  and  _65
REMARK   22  A    between atoms: _65  and  _66
REMARK   23  A    between atoms: _65  and  _68
REMARK   24  A    between atoms: _68  and  _69
REMARK   25  A    between atoms: _74  and  _76
REMARK   26  A    between atoms: _76  and  _77
REMARK   27  A    between atoms: _76  and  _79
REMARK   28  A    between atoms: _79  and  _80
REMARK   29  A    between atoms: _83  and  _85
REMARK   30  A    between atoms: _85  and  _86
REMARK   31  A    between atoms: _85  and  _88
REMARK   32  A    between atoms: _88  and  _89
REMARK   33  A    between atoms: _89  and  _90
REMARK   34  A    between atoms: _95  and  _97
REMARK   35  A    between atoms: _97  and  _98
REMARK   36  A    between atoms: _97  and  _100
REMARK   37  A    between atoms: _100  and  _101
REMARK   38  A    between atoms: _107  and  _109
REMARK   39  A    between atoms: _120  and  _123
REMARK   40  A    between atoms: _123  and  _124
REMARK   41  A    between atoms: _132  and  _133
REMARK   42  A    between atoms: _141  and  _143
REMARK   43  A    between atoms: _143  and  _144
REMARK   44  A    between atoms: _143  and  _146
REMARK   45  A    between atoms: _146  and  _147
REMARK   46  A    between atoms: _147  and  _148
REMARK   47  A    between atoms: _151  and  _153
REMARK   48  A    between atoms: _153  and  _154
REMARK   49  A    between atoms: _153  and  _156
REMARK   50  A    between atoms: _156  and  _157
REMARK   51  A    between atoms: _162  and  _164
REMARK   52  A    between atoms: _164  and  _165
REMARK   53  A    between atoms: _164  and  _167
REMARK   54  A    between atoms: _167  and  _168
REMARK   55  A    between atoms: _168  and  _169
REMARK   56  A    between atoms: _172  and  _174
REMARK   57  A    between atoms: _174  and  _175
REMARK   58  A    between atoms: _174  and  _177
REMARK   59  A    between atoms: _177  and  _178
REMARK   60  A    between atoms: _181  and  _183
REMARK   61  A    between atoms: _183  and  _184
REMARK   62  A    between atoms: _183  and  _186
REMARK   63  A    between atoms: _186  and  _187
REMARK   64  A    between atoms: _188  and  ZN_420
REMARK   65  A    between atoms: _192  and  _194
REMARK   66  A    between atoms: _194  and  _195
REMARK   67  A    between atoms: _194  and  _197
REMARK   68  A    between atoms: _197  and  _198
REMARK   69  A    between atoms: _201  and  _203
REMARK   70  A    between atoms: _203  and  _204
REMARK   71  A    between atoms: _203  and  _206
REMARK   72  A    between atoms: _209  and  _211
REMARK   73  A    between atoms: _211  and  _212
REMARK   74  A    between atoms: _211  and  _214
REMARK   75  A    between atoms: _214  and  _215
REMARK   76  A    between atoms: _220  and  _222
REMARK   77  A    between atoms: _222  and  _223
REMARK   78  A    between atoms: _222  and  _225
REMARK   79  A    between atoms: _225  and  _226
REMARK   80  A    between atoms: _232  and  _234
REMARK   81  A    between atoms: _234  and  _235
REMARK   82  A    between atoms: _237  and  _239
REMARK   83  A    between atoms: _239  and  _240
REMARK   84  A    between atoms: _239  and  _242
REMARK   85  A    between atoms: _245  and  _247
REMARK   86  A    between atoms: _247  and  _248
REMARK   87  A    between atoms: _247  and  _250
REMARK   88  A    between atoms: _250  and  _251
REMARK   89  A    between atoms: _251  and  _252
REMARK   90  A    between atoms: _257  and  _259
REMARK   91  A    between atoms: _259  and  _260
REMARK   92  A    between atoms: _259  and  _262
REMARK   93  A    between atoms: _262  and  _263
REMARK   94  A    between atoms: _266  and  _268
REMARK   95  A    between atoms: _268  and  _269
REMARK   96  A    between atoms: _272  and  _274
REMARK   97  A    between atoms: _274  and  _275
REMARK   98  A    between atoms: _274  and  _277
REMARK   99  A    between atoms: _280  and  _282
REMARK  100  A    between atoms: _282  and  _283
REMARK  101  A    between atoms: _282  and  _285
REMARK  102  A    between atoms: _285  and  _286
REMARK  103  A    between atoms: _289  and  _291
REMARK  104  A    between atoms: _291  and  _292
REMARK  105  A    between atoms: _294  and  _296
REMARK  106  A    between atoms: _296  and  _297
REMARK  107  A    between atoms: _296  and  _299
REMARK  108  A    between atoms: _299  and  _300
REMARK  109  A    between atoms: _302  and  _304
REMARK  110  A    between atoms: _304  and  _305
REMARK  111  A    between atoms: _304  and  _307
REMARK  112  A    between atoms: _307  and  _308
REMARK  113  A    between atoms: _311  and  _313
REMARK  114  A    between atoms: _313  and  _314
REMARK  115  A    between atoms: _313  and  _316
REMARK  116  A    between atoms: _316  and  _317
REMARK  117  A    between atoms: _320  and  _322
REMARK  118  A    between atoms: _322  and  _323
REMARK  119  A    between atoms: _322  and  _325
REMARK  120  A    between atoms: _325  and  _326
REMARK  121  A    between atoms: _330  and  _331
REMARK  122  A    between atoms: _337  and  _338
REMARK  123  A    between atoms: _343  and  _345
REMARK  124  A    between atoms: _345  and  _346
REMARK  125  A    between atoms: _345  and  _348
REMARK  126  A    between atoms: _348  and  _349
REMARK  127  A    between atoms: _352  and  _354
REMARK  128  A    between atoms: _354  and  _355
REMARK  129  A    between atoms: _354  and  _357
REMARK  130  A    between atoms: _357  and  _358
REMARK  131  A    between atoms: _361  and  _363
REMARK  132  A    between atoms: _363  and  _364
REMARK  133  A    between atoms: _363  and  _366
REMARK  134  A    between atoms: _368  and  _370
REMARK  135  A    between atoms: _370  and  _371
REMARK  136  A    between atoms: _370  and  _373
REMARK  137  A    between atoms: _376  and  _378
REMARK  138  A    between atoms: _378  and  _379
REMARK  139  A    between atoms: _378  and  _381
REMARK  140  A    between atoms: _381  and  _382
REMARK  141  A    between atoms: _392  and  _394
REMARK  142  A    between atoms: _394  and  _395
REMARK  143  A    between atoms: _394  and  _397
REMARK  144  A    between atoms: _397  and  _398
REMARK  145  A    between atoms: _403  and  _405
REMARK  146  A    between atoms: _405  and  _406
REMARK  147  A    between atoms: _405  and  _408
REMARK  148  A    between atoms: _408  and  _409
REMARK  149  A    between atoms: _409  and  _410
REMARK  150  A    between atoms: _410  and  _411
REMARK                            x       y       z     vdW  Elec       q    Type
REMARK                         _______ _______ _______ _____ _____    ______ ____
ROOT
ATOM      1  O   HOH     1      -4.293   3.575   9.834  0.00  0.00    +0.000 OA
ENDROOT
TORSDOF 0
REMARK  Name = ../refined-set-2016/3ibi/3ibi_pocket.pdb
REMARK  150 active torsions:
REMARK  status: ('A' for Active; 'I' for Inactive)
REMARK    1  A    between atoms: _1  and  _3
REMARK    2  A    between atoms: _3  and  _4
REMARK    3  A    between atoms: _3  and  _6
REMARK    4  A    between atoms: _6  and  _7
REMARK    5  A    between atoms: _17  and  _19
REMARK    6  A    between atoms: _19  and  _20
REMARK    7  A    between atoms: _19  and  _22
REMARK    8  A    between atoms: _22  and  _23
REMARK    9  A    between atoms: _28  and  _29
REMARK   10  A    between atoms: _31  and  _33
REMARK   11  A    between atoms: _33  and  _34
REMARK   12  A    between atoms: _33  and  _36
REMARK   13  A    between atoms: _36  and  _37
REMARK   14  A    between atoms: _40  and  _41
REMARK   15  A    between atoms: _46  and  _48
REMARK   16  A    between atoms: _48  and  _49
REMARK   17  A    between atoms: _48  and  _51
REMARK   18  A    between atoms: _51  and  _52
REMARK   19  A    between atoms: _57  and  _59
REMARK   20  A    between atoms: _59  and  _60
REMARK   21  A    between atoms: _63  and  _65
REMARK   22  A    between atoms: _65  and  _66
REMARK   23  A    between atoms: _65  and  _68
REMARK   24  A    between atoms: _68  and  _69
REMARK   25  A    between atoms: _74  and  _76
REMARK   26  A    between atoms: _76  and  _77
REMARK   27  A    between atoms: _76  and  _79
REMARK   28  A    between atoms: _79  and  _80
REMARK   29  A    between atoms: _83  and  _85
REMARK   30  A    between atoms: _85  and  _86
REMARK   31  A    between atoms: _85  and  _88
REMARK   32  A    between atoms: _88  and  _89
REMARK   33  A    between atoms: _89  and  _90
REMARK   34  A    between atoms: _95  and  _97
REMARK   35  A    between atoms: _97  and  _98
REMARK   36  A    between atoms: _97  and  _100
REMARK   37  A    between atoms: _100  and  _101
REMARK   38  A    between atoms: _107  and  _109
REMARK   39  A    between atoms: _120  and  _123
REMARK   40  A    between atoms: _123  and  _124
REMARK   41  A    between atoms: _132  and  _133
REMARK   42  A    between atoms: _141  and  _143
REMARK   43  A    between atoms: _143  and  _144
REMARK   44  A    between atoms: _143  and  _146
REMARK   45  A    between atoms: _146  and  _147
REMARK   46  A    between atoms: _147  and  _148
REMARK   47  A    between atoms: _151  and  _153
REMARK   48  A    between atoms: _153  and  _154
REMARK   49  A    between atoms: _153  and  _156
REMARK   50  A    between atoms: _156  and  _157
REMARK   51  A    between atoms: _162  and  _164
REMARK   52  A    between atoms: _164  and  _165
REMARK   53  A    between atoms: _164  and  _167
REMARK   54  A    between atoms: _167  and  _168
REMARK   55  A    between atoms: _168  and  _169
REMARK   56  A    between atoms: _172  and  _174
REMARK   57  A    between atoms: _174  and  _175
REMARK   58  A    between atoms: _174  and  _177
REMARK   59  A    between atoms: _177  and  _178
REMARK   60  A    between atoms: _181  and  _183
REMARK   61  A    between atoms: _183  and  _184
REMARK   62  A    between atoms: _183  and  _186
REMARK   63  A    between atoms: _186  and  _187
REMARK   64  A    between atoms: _188  and  ZN_420
REMARK   65  A    between atoms: _192  and  _194
REMARK   66  A    between atoms: _194  and  _195
REMARK   67  A    between atoms: _194  and  _197
REMARK   68  A    between atoms: _197  and  _198
REMARK   69  A    between atoms: _201  and  _203
REMARK   70  A    between atoms: _203  and  _204
REMARK   71  A    between atoms: _203  and  _206
REMARK   72  A    between atoms: _209  and  _211
REMARK   73  A    between atoms: _211  and  _212
REMARK   74  A    between atoms: _211  and  _214
REMARK   75  A    between atoms: _214  and  _215
REMARK   76  A    between atoms: _220  and  _222
REMARK   77  A    between atoms: _222  and  _223
REMARK   78  A    between atoms: _222  and  _225
REMARK   79  A    between atoms: _225  and  _226
REMARK   80  A    between atoms: _232  and  _234
REMARK   81  A    between atoms: _234  and  _235
REMARK   82  A    between atoms: _237  and  _239
REMARK   83  A    between atoms: _239  and  _240
REMARK   84  A    between atoms: _239  and  _242
REMARK   85  A    between atoms: _245  and  _247
REMARK   86  A    between atoms: _247  and  _248
REMARK   87  A    between atoms: _247  and  _250
REMARK   88  A    between atoms: _250  and  _251
REMARK   89  A    between atoms: _251  and  _252
REMARK   90  A    between atoms: _257  and  _259
REMARK   91  A    between atoms: _259  and  _260
REMARK   92  A    between atoms: _259  and  _262
REMARK   93  A    between atoms: _262  and  _263
REMARK   94  A    between atoms: _266  and  _268
REMARK   95  A    between atoms: _268  and  _269
REMARK   96  A    between atoms: _272  and  _274
REMARK   97  A    between atoms: _274  and  _275
REMARK   98  A    between atoms: _274  and  _277
REMARK   99  A    between atoms: _280  and  _282
REMARK  100  A    between atoms: _282  and  _283
REMARK  101  A    between atoms: _282  and  _285
REMARK  102  A    between atoms: _285  and  _286
REMARK  103  A    between atoms: _289  and  _291
REMARK  104  A    between atoms: _291  and  _292
REMARK  105  A    between atoms: _294  and  _296
REMARK  106  A    between atoms: _296  and  _297
REMARK  107  A    between atoms: _296  and  _299
REMARK  108  A    between atoms: _299  and  _300
REMARK  109  A    between atoms: _302  and  _304
REMARK  110  A    between atoms: _304  and  _305
REMARK  111  A    between atoms: _304  and  _307
REMARK  112  A    between atoms: _307  and  _308
REMARK  113  A    between atoms: _311  and  _313
REMARK  114  A    between atoms: _313  and  _314
REMARK  115  A    between atoms: _313  and  _316
REMARK  116  A    between atoms: _316  and  _317
REMARK  117  A    between atoms: _320  and  _322
REMARK  118  A    between atoms: _322  and  _323
REMARK  119  A    between atoms: _322  and  _325
REMARK  120  A    between atoms: _325  and  _326
REMARK  121  A    between atoms: _330  and  _331
REMARK  122  A    between atoms: _337  and  _338
REMARK  123  A    between atoms: _343  and  _345
REMARK  124  A    between atoms: _345  and  _346
REMARK  125  A    between atoms: _345  and  _348
REMARK  126  A    between atoms: _348  and  _349
REMARK  127  A    between atoms: _352  and  _354
REMARK  128  A    between atoms: _354  and  _355
REMARK  129  A    between atoms: _354  and  _357
REMARK  130  A    between atoms: _357  and  _358
REMARK  131  A    between atoms: _361  and  _363
REMARK  132  A    between atoms: _363  and  _364
REMARK  133  A    between atoms: _363  and  _366
REMARK  134  A    between atoms: _368  and  _370
REMARK  135  A    between atoms: _370  and  _371
REMARK  136  A    between atoms: _370  and  _373
REMARK  137  A    between atoms: _376  and  _378
REMARK  138  A    between atoms: _378  and  _379
REMARK  139  A    between atoms: _378  and  _381
REMARK  140  A    between atoms: _381  and  _382
REMARK  141  A    between atoms: _392  and  _394
REMARK  142  A    between atoms: _394  and  _395
REMARK  143  A    between atoms: _394  and  _397
REMARK  144  A    between atoms: _397  and  _398
REMARK  145  A    between atoms: _403  and  _405
REMARK  146  A    between atoms: _405  and  _406
REMARK  147  A    between atoms: _405  and  _408
REMARK  148  A    between atoms: _408  and  _409
REMARK  149  A    between atoms: _409  and  _410
REMARK  150  A    between atoms: _410  and  _411
REMARK                            x       y       z     vdW  Elec       q    Type
REMARK                         _______ _______ _______ _____ _____    ______ ____
ROOT
ATOM      1  O   HOH     1       1.129  12.791  19.465  0.00  0.00    +0.000 OA
ENDROOT
TORSDOF 0
REMARK  Name = ../refined-set-2016/3ibi/3ibi_pocket.pdb
REMARK  150 active torsions:
REMARK  status: ('A' for Active; 'I' for Inactive)
REMARK    1  A    between atoms: _1  and  _3
REMARK    2  A    between atoms: _3  and  _4
REMARK    3  A    between atoms: _3  and  _6
REMARK    4  A    between atoms: _6  and  _7
REMARK    5  A    between atoms: _17  and  _19
REMARK    6  A    between atoms: _19  and  _20
REMARK    7  A    between atoms: _19  and  _22
REMARK    8  A    between atoms: _22  and  _23
REMARK    9  A    between atoms: _28  and  _29
REMARK   10  A    between atoms: _31  and  _33
REMARK   11  A    between atoms: _33  and  _34
REMARK   12  A    between atoms: _33  and  _36
REMARK   13  A    between atoms: _36  and  _37
REMARK   14  A    between atoms: _40  and  _41
REMARK   15  A    between atoms: _46  and  _48
REMARK   16  A    between atoms: _48  and  _49
REMARK   17  A    between atoms: _48  and  _51
REMARK   18  A    between atoms: _51  and  _52
REMARK   19  A    between atoms: _57  and  _59
REMARK   20  A    between atoms: _59  and  _60
REMARK   21  A    between atoms: _63  and  _65
REMARK   22  A    between atoms: _65  and  _66
REMARK   23  A    between atoms: _65  and  _68
REMARK   24  A    between atoms: _68  and  _69
REMARK   25  A    between atoms: _74  and  _76
REMARK   26  A    between atoms: _76  and  _77
REMARK   27  A    between atoms: _76  and  _79
REMARK   28  A    between atoms: _79  and  _80
REMARK   29  A    between atoms: _83  and  _85
REMARK   30  A    between atoms: _85  and  _86
REMARK   31  A    between atoms: _85  and  _88
REMARK   32  A    between atoms: _88  and  _89
REMARK   33  A    between atoms: _89  and  _90
REMARK   34  A    between atoms: _95  and  _97
REMARK   35  A    between atoms: _97  and  _98
REMARK   36  A    between atoms: _97  and  _100
REMARK   37  A    between atoms: _100  and  _101
REMARK   38  A    between atoms: _107  and  _109
REMARK   39  A    between atoms: _120  and  _123
REMARK   40  A    between atoms: _123  and  _124
REMARK   41  A    between atoms: _132  and  _133
REMARK   42  A    between atoms: _141  and  _143
REMARK   43  A    between atoms: _143  and  _144
REMARK   44  A    between atoms: _143  and  _146
REMARK   45  A    between atoms: _146  and  _147
REMARK   46  A    between atoms: _147  and  _148
REMARK   47  A    between atoms: _151  and  _153
REMARK   48  A    between atoms: _153  and  _154
REMARK   49  A    between atoms: _153  and  _156
REMARK   50  A    between atoms: _156  and  _157
REMARK   51  A    between atoms: _162  and  _164
REMARK   52  A    between atoms: _164  and  _165
REMARK   53  A    between atoms: _164  and  _167
REMARK   54  A    between atoms: _167  and  _168
REMARK   55  A    between atoms: _168  and  _169
REMARK   56  A    between atoms: _172  and  _174
REMARK   57  A    between atoms: _174  and  _175
REMARK   58  A    between atoms: _174  and  _177
REMARK   59  A    between atoms: _177  and  _178
REMARK   60  A    between atoms: _181  and  _183
REMARK   61  A    between atoms: _183  and  _184
REMARK   62  A    between atoms: _183  and  _186
REMARK   63  A    between atoms: _186  and  _187
REMARK   64  A    between atoms: _188  and  ZN_420
REMARK   65  A    between atoms: _192  and  _194
REMARK   66  A    between atoms: _194  and  _195
REMARK   67  A    between atoms: _194  and  _197
REMARK   68  A    between atoms: _197  and  _198
REMARK   69  A    between atoms: _201  and  _203
REMARK   70  A    between atoms: _203  and  _204
REMARK   71  A    between atoms: _203  and  _206
REMARK   72  A    between atoms: _209  and  _211
REMARK   73  A    between atoms: _211  and  _212
REMARK   74  A    between atoms: _211  and  _214
REMARK   75  A    between atoms: _214  and  _215
REMARK   76  A    between atoms: _220  and  _222
REMARK   77  A    between atoms: _222  and  _223
REMARK   78  A    between atoms: _222  and  _225
REMARK   79  A    between atoms: _225  and  _226
REMARK   80  A    between atoms: _232  and  _234
REMARK   81  A    between atoms: _234  and  _235
REMARK   82  A    between atoms: _237  and  _239
REMARK   83  A    between atoms: _239  and  _240
REMARK   84  A    between atoms: _239  and  _242
REMARK   85  A    between atoms: _245  and  _247
REMARK   86  A    between atoms: _247  and  _248
REMARK   87  A    between atoms: _247  and  _250
REMARK   88  A    between atoms: _250  and  _251
REMARK   89  A    between atoms: _251  and  _252
REMARK   90  A    between atoms: _257  and  _259
REMARK   91  A    between atoms: _259  and  _260
REMARK   92  A    between atoms: _259  and  _262
REMARK   93  A    between atoms: _262  and  _263
REMARK   94  A    between atoms: _266  and  _268
REMARK   95  A    between atoms: _268  and  _269
REMARK   96  A    between atoms: _272  and  _274
REMARK   97  A    between atoms: _274  and  _275
REMARK   98  A    between atoms: _274  and  _277
REMARK   99  A    between atoms: _280  and  _282
REMARK  100  A    between atoms: _282  and  _283
REMARK  101  A    between atoms: _282  and  _285
REMARK  102  A    between atoms: _285  and  _286
REMARK  103  A    between atoms: _289  and  _291
REMARK  104  A    between atoms: _291  and  _292
REMARK  105  A    between atoms: _294  and  _296
REMARK  106  A    between atoms: _296  and  _297
REMARK  107  A    between atoms: _296  and  _299
REMARK  108  A    between atoms: _299  and  _300
REMARK  109  A    between atoms: _302  and  _304
REMARK  110  A    between atoms: _304  and  _305
REMARK  111  A    between atoms: _304  and  _307
REMARK  112  A    between atoms: _307  and  _308
REMARK  113  A    between atoms: _311  and  _313
REMARK  114  A    between atoms: _313  and  _314
REMARK  115  A    between atoms: _313  and  _316
REMARK  116  A    between atoms: _316  and  _317
REMARK  117  A    between atoms: _320  and  _322
REMARK  118  A    between atoms: _322  and  _323
REMARK  119  A    between atoms: _322  and  _325
REMARK  120  A    between atoms: _325  and  _326
REMARK  121  A    between atoms: _330  and  _331
REMARK  122  A    between atoms: _337  and  _338
REMARK  123  A    between atoms: _343  and  _345
REMARK  124  A    between atoms: _345  and  _346
REMARK  125  A    between atoms: _345  and  _348
REMARK  126  A    between atoms: _348  and  _349
REMARK  127  A    between atoms: _352  and  _354
REMARK  128  A    between atoms: _354  and  _355
REMARK  129  A    between atoms: _354  and  _357
REMARK  130  A    between atoms: _357  and  _358
REMARK  131  A    between atoms: _361  and  _363
REMARK  132  A    between atoms: _363  and  _364
REMARK  133  A    between atoms: _363  and  _366
REMARK  134  A    between atoms: _368  and  _370
REMARK  135  A    between atoms: _370  and  _371
REMARK  136  A    between atoms: _370  and  _373
REMARK  137  A    between atoms: _376  and  _378
REMARK  138  A    between atoms: _378  and  _379
REMARK  139  A    between atoms: _378  and  _381
REMARK  140  A    between atoms: _381  and  _382
REMARK  141  A    between atoms: _392  and  _394
REMARK  142  A    between atoms: _394  and  _395
REMARK  143  A    between atoms: _394  and  _397
REMARK  144  A    between atoms: _397  and  _398
REMARK  145  A    between atoms: _403  and  _405
REMARK  146  A    between atoms: _405  and  _406
REMARK  147  A    between atoms: _405  and  _408
REMARK  148  A    between atoms: _408  and  _409
REMARK  149  A    between atoms: _409  and  _410
REMARK  150  A    between atoms: _410  and  _411
REMARK                            x       y       z     vdW  Elec       q    Type
REMARK                         _______ _______ _______ _____ _____    ______ ____
ROOT
ATOM      1  O   HOH     1      -4.575   9.489   6.927  0.00  0.00    +0.000 OA
ENDROOT
TORSDOF 0
