REMARK  Name = ../refined-set-2016/1d3d/1d3d_pocket.pdb
REMARK  228 active torsions:
REMARK  status: ('A' for Active; 'I' for Inactive)
REMARK    1  A    between atoms: _1  and  _5
REMARK    2  A    between atoms: _5  and  _6
REMARK    3  A    between atoms: _5  and  _8
REMARK    4  A    between atoms: _8  and  _9
REMARK    5  A    between atoms: _12  and  _14
REMARK    6  A    between atoms: _14  and  _15
REMARK    7  A    between atoms: _14  and  _17
REMARK    8  A    between atoms: _20  and  _22
REMARK    9  A    between atoms: _22  and  _23
REMARK   10  A    between atoms: _22  and  _25
REMARK   11  A    between atoms: _25  and  _26
REMARK   12  A    between atoms: _29  and  _31
REMARK   13  A    between atoms: _31  and  _32
REMARK   14  A    between atoms: _31  and  _34
REMARK   15  A    between atoms: _34  and  _35
REMARK   16  A    between atoms: _35  and  _65
REMARK   17  A    between atoms: _36  and  _38
REMARK   18  A    between atoms: _38  and  _39
REMARK   19  A    between atoms: _42  and  _44
REMARK   20  A    between atoms: _44  and  _45
REMARK   21  A    between atoms: _48  and  _50
REMARK   22  A    between atoms: _50  and  _51
REMARK   23  A    between atoms: _50  and  _53
REMARK   24  A    between atoms: _53  and  _54
REMARK   25  A    between atoms: _59  and  _61
REMARK   26  A    between atoms: _61  and  _62
REMARK   27  A    between atoms: _61  and  _64
REMARK   28  A    between atoms: _64  and  _65
REMARK   29  A    between atoms: _66  and  _68
REMARK   30  A    between atoms: _68  and  _69
REMARK   31  A    between atoms: _68  and  _71
REMARK   32  A    between atoms: _71  and  _72
REMARK   33  A    between atoms: _75  and  _77
REMARK   34  A    between atoms: _77  and  _78
REMARK   35  A    between atoms: _77  and  _80
REMARK   36  A    between atoms: _80  and  _81
REMARK   37  A    between atoms: _86  and  _87
REMARK   38  A    between atoms: _90  and  _91
REMARK   39  A    between atoms: _97  and  _98
REMARK   40  A    between atoms: _103  and  _105
REMARK   41  A    between atoms: _105  and  _106
REMARK   42  A    between atoms: _105  and  _108
REMARK   43  A    between atoms: _108  and  _109
REMARK   44  A    between atoms: _119  and  _121
REMARK   45  A    between atoms: _121  and  _122
REMARK   46  A    between atoms: _121  and  _124
REMARK   47  A    between atoms: _124  and  _125
REMARK   48  A    between atoms: _128  and  _130
REMARK   49  A    between atoms: _130  and  _131
REMARK   50  A    between atoms: _130  and  _133
REMARK   51  A    between atoms: _133  and  _134
REMARK   52  A    between atoms: _134  and  _135
REMARK   53  A    between atoms: _135  and  _136
REMARK   54  A    between atoms: _136  and  _137
REMARK   55  A    between atoms: _141  and  _143
REMARK   56  A    between atoms: _143  and  _144
REMARK   57  A    between atoms: _143  and  _146
REMARK   58  A    between atoms: _146  and  _147
REMARK   59  A    between atoms: _152  and  _153
REMARK   60  A    between atoms: _155  and  _157
REMARK   61  A    between atoms: _157  and  _158
REMARK   62  A    between atoms: _157  and  _160
REMARK   63  A    between atoms: _160  and  _161
REMARK   64  A    between atoms: _166  and  _168
REMARK   65  A    between atoms: _168  and  _169
REMARK   66  A    between atoms: _168  and  _171
REMARK   67  A    between atoms: _171  and  _172
REMARK   68  A    between atoms: _182  and  _184
REMARK   69  A    between atoms: _184  and  _185
REMARK   70  A    between atoms: _184  and  _187
REMARK   71  A    between atoms: _187  and  _188
REMARK   72  A    between atoms: _188  and  _189
REMARK   73  A    between atoms: _189  and  _190
REMARK   74  A    between atoms: _199  and  _201
REMARK   75  A    between atoms: _201  and  _202
REMARK   76  A    between atoms: _201  and  _204
REMARK   77  A    between atoms: _204  and  _205
REMARK   78  A    between atoms: _205  and  _206
REMARK   79  A    between atoms: _209  and  _211
REMARK   80  A    between atoms: _211  and  _212
REMARK   81  A    between atoms: _211  and  _214
REMARK   82  A    between atoms: _214  and  _215
REMARK   83  A    between atoms: _220  and  _222
REMARK   84  A    between atoms: _222  and  _223
REMARK   85  A    between atoms: _222  and  _225
REMARK   86  A    between atoms: _225  and  _226
REMARK   87  A    between atoms: _229  and  _231
REMARK   88  A    between atoms: _231  and  _232
REMARK   89  A    between atoms: _231  and  _234
REMARK   90  A    between atoms: _234  and  _235
REMARK   91  A    between atoms: _238  and  _240
REMARK   92  A    between atoms: _240  and  _241
REMARK   93  A    between atoms: _240  and  _243
REMARK   94  A    between atoms: _243  and  _244
REMARK   95  A    between atoms: _247  and  _249
REMARK   96  A    between atoms: _249  and  _250
REMARK   97  A    between atoms: _249  and  _252
REMARK   98  A    between atoms: _255  and  _257
REMARK   99  A    between atoms: _257  and  _258
REMARK  100  A    between atoms: _257  and  _260
REMARK  101  A    between atoms: _260  and  _261
REMARK  102  A    between atoms: _266  and  _268
REMARK  103  A    between atoms: _268  and  _269
REMARK  104  A    between atoms: _268  and  _271
REMARK  105  A    between atoms: _271  and  _272
REMARK  106  A    between atoms: _272  and  _273
REMARK  107  A    between atoms: _276  and  _278
REMARK  108  A    between atoms: _278  and  _279
REMARK  109  A    between atoms: _278  and  _281
REMARK  110  A    between atoms: _281  and  _282
REMARK  111  A    between atoms: _285  and  _287
REMARK  112  A    between atoms: _287  and  _288
REMARK  113  A    between atoms: _287  and  _290
REMARK  114  A    between atoms: _290  and  _291
REMARK  115  A    between atoms: _294  and  _296
REMARK  116  A    between atoms: _296  and  _297
REMARK  117  A    between atoms: _296  and  _299
REMARK  118  A    between atoms: _299  and  _300
REMARK  119  A    between atoms: _303  and  _305
REMARK  120  A    between atoms: _305  and  _306
REMARK  121  A    between atoms: _305  and  _308
REMARK  122  A    between atoms: _308  and  _309
REMARK  123  A    between atoms: _309  and  _310
REMARK  124  A    between atoms: _310  and  _311
REMARK  125  A    between atoms: _320  and  _322
REMARK  126  A    between atoms: _322  and  _323
REMARK  127  A    between atoms: _322  and  _325
REMARK  128  A    between atoms: _325  and  _326
REMARK  129  A    between atoms: _326  and  _327
REMARK  130  A    between atoms: _329  and  _331
REMARK  131  A    between atoms: _331  and  _332
REMARK  132  A    between atoms: _335  and  _337
REMARK  133  A    between atoms: _337  and  _338
REMARK  134  A    between atoms: _340  and  _342
REMARK  135  A    between atoms: _342  and  _343
REMARK  136  A    between atoms: _342  and  _345
REMARK  137  A    between atoms: _345  and  _346
REMARK  138  A    between atoms: _349  and  _351
REMARK  139  A    between atoms: _351  and  _352
REMARK  140  A    between atoms: _355  and  _357
REMARK  141  A    between atoms: _357  and  _358
REMARK  142  A    between atoms: _357  and  _360
REMARK  143  A    between atoms: _360  and  _361
REMARK  144  A    between atoms: _361  and  _471
REMARK  145  A    between atoms: _362  and  _364
REMARK  146  A    between atoms: _364  and  _365
REMARK  147  A    between atoms: _364  and  _367
REMARK  148  A    between atoms: _367  and  _368
REMARK  149  A    between atoms: _368  and  _369
REMARK  150  A    between atoms: _372  and  _374
REMARK  151  A    between atoms: _374  and  _375
REMARK  152  A    between atoms: _377  and  _379
REMARK  153  A    between atoms: _379  and  _380
REMARK  154  A    between atoms: _379  and  _382
REMARK  155  A    between atoms: _382  and  _383
REMARK  156  A    between atoms: _386  and  _388
REMARK  157  A    between atoms: _388  and  _389
REMARK  158  A    between atoms: _388  and  _391
REMARK  159  A    between atoms: _391  and  _392
REMARK  160  A    between atoms: _394  and  _396
REMARK  161  A    between atoms: _396  and  _397
REMARK  162  A    between atoms: _399  and  _401
REMARK  163  A    between atoms: _401  and  _402
REMARK  164  A    between atoms: _404  and  _406
REMARK  165  A    between atoms: _406  and  _407
REMARK  166  A    between atoms: _406  and  _409
REMARK  167  A    between atoms: _409  and  _410
REMARK  168  A    between atoms: _413  and  _415
REMARK  169  A    between atoms: _415  and  _416
REMARK  170  A    between atoms: _415  and  _418
REMARK  171  A    between atoms: _421  and  _423
REMARK  172  A    between atoms: _423  and  _424
REMARK  173  A    between atoms: _423  and  _426
REMARK  174  A    between atoms: _426  and  _427
REMARK  175  A    between atoms: _429  and  _431
REMARK  176  A    between atoms: _431  and  _432
REMARK  177  A    between atoms: _431  and  _434
REMARK  178  A    between atoms: _434  and  _435
REMARK  179  A    between atoms: _445  and  _447
REMARK  180  A    between atoms: _447  and  _448
REMARK  181  A    between atoms: _450  and  _452
REMARK  182  A    between atoms: _452  and  _453
REMARK  183  A    between atoms: _452  and  _455
REMARK  184  A    between atoms: _455  and  _456
REMARK  185  A    between atoms: _456  and  _457
REMARK  186  A    between atoms: _460  and  _462
REMARK  187  A    between atoms: _462  and  _463
REMARK  188  A    between atoms: _465  and  _467
REMARK  189  A    between atoms: _467  and  _468
REMARK  190  A    between atoms: _467  and  _470
REMARK  191  A    between atoms: _470  and  _471
REMARK  192  A    between atoms: _472  and  _474
REMARK  193  A    between atoms: _474  and  _475
REMARK  194  A    between atoms: _474  and  _477
REMARK  195  A    between atoms: _477  and  _478
REMARK  196  A    between atoms: _481  and  _483
REMARK  197  A    between atoms: _483  and  _484
REMARK  198  A    between atoms: _483  and  _486
REMARK  199  A    between atoms: _486  and  _487
REMARK  200  A    between atoms: _487  and  _488
REMARK  201  A    between atoms: _488  and  _489
REMARK  202  A    between atoms: _498  and  _500
REMARK  203  A    between atoms: _500  and  _501
REMARK  204  A    between atoms: _500  and  _503
REMARK  205  A    between atoms: _503  and  _504
REMARK  206  A    between atoms: _504  and  _505
REMARK  207  A    between atoms: _505  and  _506
REMARK  208  A    between atoms: _506  and  _507
REMARK  209  A    between atoms: _511  and  _513
REMARK  210  A    between atoms: _513  and  _514
REMARK  211  A    between atoms: _513  and  _516
REMARK  212  A    between atoms: _516  and  _517
REMARK  213  A    between atoms: _522  and  _523
REMARK  214  A    between atoms: _525  and  _527
REMARK  215  A    between atoms: _527  and  _528
REMARK  216  A    between atoms: _530  and  _532
REMARK  217  A    between atoms: _532  and  _533
REMARK  218  A    between atoms: _532  and  _535
REMARK  219  A    between atoms: _535  and  _536
REMARK  220  A    between atoms: _542  and  _544
REMARK  221  A    between atoms: _544  and  _545
REMARK  222  A    between atoms: _544  and  _547
REMARK  223  A    between atoms: _547  and  _548
REMARK  224  A    between atoms: _553  and  _554
REMARK  225  A    between atoms: _556  and  _558
REMARK  226  A    between atoms: _558  and  _559
REMARK  227  A    between atoms: _558  and  _561
REMARK  228  A    between atoms: _561  and  _562
REMARK                            x       y       z     vdW  Elec       q    Type
REMARK                         _______ _______ _______ _____ _____    ______ ____
ROOT
ATOM      1  C   ILE A   1     -32.392 -30.041  19.688  0.00  0.00    +0.202 C 
ATOM      2  N   VAL A   2     -32.338 -30.608  20.890  0.00  0.00    -0.301 N 
ATOM      3  H   VAL A   2     -31.593 -30.304  21.549  0.00  0.00    +0.150 HD
ATOM      4  O   ILE A   1     -33.244 -30.324  18.838  0.00  0.00    -0.277 OA
ENDROOT
BRANCH   1   5
ATOM      5  CA  ILE A   1     -31.325 -28.991  19.416  0.00  0.00    +0.013 C 
BRANCH   5   6
ATOM      6  N   ILE A   1     -30.629 -29.248  18.131  0.00  0.00    +0.387 N 
ATOM      7  H1  ILE A   1     -30.173 -30.182  18.166  0.00  0.00    -0.089 HD
ATOM      8  H2  ILE A   1     -29.908 -28.514  17.976  0.00  0.00    -0.089 HD
ATOM      9  H3  ILE A   1     -31.320 -29.227  17.354  0.00  0.00    -0.089 HD
ENDBRANCH   5   6
BRANCH   5  10
ATOM     10  CB  ILE A   1     -31.997 -27.596  19.426  0.00  0.00    -0.011 C 
ATOM     11  CG2 ILE A   1     -32.610 -27.315  20.799  0.00  0.00    -0.002 C 
BRANCH  10  12
ATOM     12  CG1 ILE A   1     -30.969 -26.525  19.048  0.00  0.00    -0.002 C 
ATOM     13  CD1 ILE A   1     -29.943 -26.221  20.142  0.00  0.00    -0.000 C 
ENDBRANCH  10  12
ENDBRANCH   5  10
ENDBRANCH   1   5
BRANCH   2  14
ATOM     14  CA  VAL A   2     -33.272 -31.632  21.325  0.00  0.00    +0.137 C 
BRANCH  14  15
ATOM     15  CB  VAL A   2     -32.518 -32.755  22.100  0.00  0.00    +0.026 C 
ATOM     16  CG2 VAL A   2     -33.492 -33.819  22.569  0.00  0.00    +0.002 C 
ATOM     17  CG1 VAL A   2     -31.433 -33.364  21.204  0.00  0.00    +0.002 C 
ENDBRANCH  14  15
BRANCH  14  18
ATOM     18  C   VAL A   2     -34.332 -31.012  22.226  0.00  0.00    +0.227 C 
ATOM     19  O   VAL A   2     -34.017 -30.281  23.170  0.00  0.00    -0.286 OA
ENDBRANCH  14  18
ENDBRANCH   2  14
TORSDOF 7
REMARK  Name = ../refined-set-2016/1d3d/1d3d_pocket.pdb
REMARK  228 active torsions:
REMARK  status: ('A' for Active; 'I' for Inactive)
REMARK    1  A    between atoms: _1  and  _5
REMARK    2  A    between atoms: _5  and  _6
REMARK    3  A    between atoms: _5  and  _8
REMARK    4  A    between atoms: _8  and  _9
REMARK    5  A    between atoms: _12  and  _14
REMARK    6  A    between atoms: _14  and  _15
REMARK    7  A    between atoms: _14  and  _17
REMARK    8  A    between atoms: _20  and  _22
REMARK    9  A    between atoms: _22  and  _23
REMARK   10  A    between atoms: _22  and  _25
REMARK   11  A    between atoms: _25  and  _26
REMARK   12  A    between atoms: _29  and  _31
REMARK   13  A    between atoms: _31  and  _32
REMARK   14  A    between atoms: _31  and  _34
REMARK   15  A    between atoms: _34  and  _35
REMARK   16  A    between atoms: _35  and  _65
REMARK   17  A    between atoms: _36  and  _38
REMARK   18  A    between atoms: _38  and  _39
REMARK   19  A    between atoms: _42  and  _44
REMARK   20  A    between atoms: _44  and  _45
REMARK   21  A    between atoms: _48  and  _50
REMARK   22  A    between atoms: _50  and  _51
REMARK   23  A    between atoms: _50  and  _53
REMARK   24  A    between atoms: _53  and  _54
REMARK   25  A    between atoms: _59  and  _61
REMARK   26  A    between atoms: _61  and  _62
REMARK   27  A    between atoms: _61  and  _64
REMARK   28  A    between atoms: _64  and  _65
REMARK   29  A    between atoms: _66  and  _68
REMARK   30  A    between atoms: _68  and  _69
REMARK   31  A    between atoms: _68  and  _71
REMARK   32  A    between atoms: _71  and  _72
REMARK   33  A    between atoms: _75  and  _77
REMARK   34  A    between atoms: _77  and  _78
REMARK   35  A    between atoms: _77  and  _80
REMARK   36  A    between atoms: _80  and  _81
REMARK   37  A    between atoms: _86  and  _87
REMARK   38  A    between atoms: _90  and  _91
REMARK   39  A    between atoms: _97  and  _98
REMARK   40  A    between atoms: _103  and  _105
REMARK   41  A    between atoms: _105  and  _106
REMARK   42  A    between atoms: _105  and  _108
REMARK   43  A    between atoms: _108  and  _109
REMARK   44  A    between atoms: _119  and  _121
REMARK   45  A    between atoms: _121  and  _122
REMARK   46  A    between atoms: _121  and  _124
REMARK   47  A    between atoms: _124  and  _125
REMARK   48  A    between atoms: _128  and  _130
REMARK   49  A    between atoms: _130  and  _131
REMARK   50  A    between atoms: _130  and  _133
REMARK   51  A    between atoms: _133  and  _134
REMARK   52  A    between atoms: _134  and  _135
REMARK   53  A    between atoms: _135  and  _136
REMARK   54  A    between atoms: _136  and  _137
REMARK   55  A    between atoms: _141  and  _143
REMARK   56  A    between atoms: _143  and  _144
REMARK   57  A    between atoms: _143  and  _146
REMARK   58  A    between atoms: _146  and  _147
REMARK   59  A    between atoms: _152  and  _153
REMARK   60  A    between atoms: _155  and  _157
REMARK   61  A    between atoms: _157  and  _158
REMARK   62  A    between atoms: _157  and  _160
REMARK   63  A    between atoms: _160  and  _161
REMARK   64  A    between atoms: _166  and  _168
REMARK   65  A    between atoms: _168  and  _169
REMARK   66  A    between atoms: _168  and  _171
REMARK   67  A    between atoms: _171  and  _172
REMARK   68  A    between atoms: _182  and  _184
REMARK   69  A    between atoms: _184  and  _185
REMARK   70  A    between atoms: _184  and  _187
REMARK   71  A    between atoms: _187  and  _188
REMARK   72  A    between atoms: _188  and  _189
REMARK   73  A    between atoms: _189  and  _190
REMARK   74  A    between atoms: _199  and  _201
REMARK   75  A    between atoms: _201  and  _202
REMARK   76  A    between atoms: _201  and  _204
REMARK   77  A    between atoms: _204  and  _205
REMARK   78  A    between atoms: _205  and  _206
REMARK   79  A    between atoms: _209  and  _211
REMARK   80  A    between atoms: _211  and  _212
REMARK   81  A    between atoms: _211  and  _214
REMARK   82  A    between atoms: _214  and  _215
REMARK   83  A    between atoms: _220  and  _222
REMARK   84  A    between atoms: _222  and  _223
REMARK   85  A    between atoms: _222  and  _225
REMARK   86  A    between atoms: _225  and  _226
REMARK   87  A    between atoms: _229  and  _231
REMARK   88  A    between atoms: _231  and  _232
REMARK   89  A    between atoms: _231  and  _234
REMARK   90  A    between atoms: _234  and  _235
REMARK   91  A    between atoms: _238  and  _240
REMARK   92  A    between atoms: _240  and  _241
REMARK   93  A    between atoms: _240  and  _243
REMARK   94  A    between atoms: _243  and  _244
REMARK   95  A    between atoms: _247  and  _249
REMARK   96  A    between atoms: _249  and  _250
REMARK   97  A    between atoms: _249  and  _252
REMARK   98  A    between atoms: _255  and  _257
REMARK   99  A    between atoms: _257  and  _258
REMARK  100  A    between atoms: _257  and  _260
REMARK  101  A    between atoms: _260  and  _261
REMARK  102  A    between atoms: _266  and  _268
REMARK  103  A    between atoms: _268  and  _269
REMARK  104  A    between atoms: _268  and  _271
REMARK  105  A    between atoms: _271  and  _272
REMARK  106  A    between atoms: _272  and  _273
REMARK  107  A    between atoms: _276  and  _278
REMARK  108  A    between atoms: _278  and  _279
REMARK  109  A    between atoms: _278  and  _281
REMARK  110  A    between atoms: _281  and  _282
REMARK  111  A    between atoms: _285  and  _287
REMARK  112  A    between atoms: _287  and  _288
REMARK  113  A    between atoms: _287  and  _290
REMARK  114  A    between atoms: _290  and  _291
REMARK  115  A    between atoms: _294  and  _296
REMARK  116  A    between atoms: _296  and  _297
REMARK  117  A    between atoms: _296  and  _299
REMARK  118  A    between atoms: _299  and  _300
REMARK  119  A    between atoms: _303  and  _305
REMARK  120  A    between atoms: _305  and  _306
REMARK  121  A    between atoms: _305  and  _308
REMARK  122  A    between atoms: _308  and  _309
REMARK  123  A    between atoms: _309  and  _310
REMARK  124  A    between atoms: _310  and  _311
REMARK  125  A    between atoms: _320  and  _322
REMARK  126  A    between atoms: _322  and  _323
REMARK  127  A    between atoms: _322  and  _325
REMARK  128  A    between atoms: _325  and  _326
REMARK  129  A    between atoms: _326  and  _327
REMARK  130  A    between atoms: _329  and  _331
REMARK  131  A    between atoms: _331  and  _332
REMARK  132  A    between atoms: _335  and  _337
REMARK  133  A    between atoms: _337  and  _338
REMARK  134  A    between atoms: _340  and  _342
REMARK  135  A    between atoms: _342  and  _343
REMARK  136  A    between atoms: _342  and  _345
REMARK  137  A    between atoms: _345  and  _346
REMARK  138  A    between atoms: _349  and  _351
REMARK  139  A    between atoms: _351  and  _352
REMARK  140  A    between atoms: _355  and  _357
REMARK  141  A    between atoms: _357  and  _358
REMARK  142  A    between atoms: _357  and  _360
REMARK  143  A    between atoms: _360  and  _361
REMARK  144  A    between atoms: _361  and  _471
REMARK  145  A    between atoms: _362  and  _364
REMARK  146  A    between atoms: _364  and  _365
REMARK  147  A    between atoms: _364  and  _367
REMARK  148  A    between atoms: _367  and  _368
REMARK  149  A    between atoms: _368  and  _369
REMARK  150  A    between atoms: _372  and  _374
REMARK  151  A    between atoms: _374  and  _375
REMARK  152  A    between atoms: _377  and  _379
REMARK  153  A    between atoms: _379  and  _380
REMARK  154  A    between atoms: _379  and  _382
REMARK  155  A    between atoms: _382  and  _383
REMARK  156  A    between atoms: _386  and  _388
REMARK  157  A    between atoms: _388  and  _389
REMARK  158  A    between atoms: _388  and  _391
REMARK  159  A    between atoms: _391  and  _392
REMARK  160  A    between atoms: _394  and  _396
REMARK  161  A    between atoms: _396  and  _397
REMARK  162  A    between atoms: _399  and  _401
REMARK  163  A    between atoms: _401  and  _402
REMARK  164  A    between atoms: _404  and  _406
REMARK  165  A    between atoms: _406  and  _407
REMARK  166  A    between atoms: _406  and  _409
REMARK  167  A    between atoms: _409  and  _410
REMARK  168  A    between atoms: _413  and  _415
REMARK  169  A    between atoms: _415  and  _416
REMARK  170  A    between atoms: _415  and  _418
REMARK  171  A    between atoms: _421  and  _423
REMARK  172  A    between atoms: _423  and  _424
REMARK  173  A    between atoms: _423  and  _426
REMARK  174  A    between atoms: _426  and  _427
REMARK  175  A    between atoms: _429  and  _431
REMARK  176  A    between atoms: _431  and  _432
REMARK  177  A    between atoms: _431  and  _434
REMARK  178  A    between atoms: _434  and  _435
REMARK  179  A    between atoms: _445  and  _447
REMARK  180  A    between atoms: _447  and  _448
REMARK  181  A    between atoms: _450  and  _452
REMARK  182  A    between atoms: _452  and  _453
REMARK  183  A    between atoms: _452  and  _455
REMARK  184  A    between atoms: _455  and  _456
REMARK  185  A    between atoms: _456  and  _457
REMARK  186  A    between atoms: _460  and  _462
REMARK  187  A    between atoms: _462  and  _463
REMARK  188  A    between atoms: _465  and  _467
REMARK  189  A    between atoms: _467  and  _468
REMARK  190  A    between atoms: _467  and  _470
REMARK  191  A    between atoms: _470  and  _471
REMARK  192  A    between atoms: _472  and  _474
REMARK  193  A    between atoms: _474  and  _475
REMARK  194  A    between atoms: _474  and  _477
REMARK  195  A    between atoms: _477  and  _478
REMARK  196  A    between atoms: _481  and  _483
REMARK  197  A    between atoms: _483  and  _484
REMARK  198  A    between atoms: _483  and  _486
REMARK  199  A    between atoms: _486  and  _487
REMARK  200  A    between atoms: _487  and  _488
REMARK  201  A    between atoms: _488  and  _489
REMARK  202  A    between atoms: _498  and  _500
REMARK  203  A    between atoms: _500  and  _501
REMARK  204  A    between atoms: _500  and  _503
REMARK  205  A    between atoms: _503  and  _504
REMARK  206  A    between atoms: _504  and  _505
REMARK  207  A    between atoms: _505  and  _506
REMARK  208  A    between atoms: _506  and  _507
REMARK  209  A    between atoms: _511  and  _513
REMARK  210  A    between atoms: _513  and  _514
REMARK  211  A    between atoms: _513  and  _516
REMARK  212  A    between atoms: _516  and  _517
REMARK  213  A    between atoms: _522  and  _523
REMARK  214  A    between atoms: _525  and  _527
REMARK  215  A    between atoms: _527  and  _528
REMARK  216  A    between atoms: _530  and  _532
REMARK  217  A    between atoms: _532  and  _533
REMARK  218  A    between atoms: _532  and  _535
REMARK  219  A    between atoms: _535  and  _536
REMARK  220  A    between atoms: _542  and  _544
REMARK  221  A    between atoms: _544  and  _545
REMARK  222  A    between atoms: _544  and  _547
REMARK  223  A    between atoms: _547  and  _548
REMARK  224  A    between atoms: _553  and  _554
REMARK  225  A    between atoms: _556  and  _558
REMARK  226  A    between atoms: _558  and  _559
REMARK  227  A    between atoms: _558  and  _561
REMARK  228  A    between atoms: _561  and  _562
REMARK                            x       y       z     vdW  Elec       q    Type
REMARK                         _______ _______ _______ _____ _____    ______ ____
ROOT
ATOM      1  N   CYS A   4     -14.585 -27.265  16.615  0.00  0.00    -0.297 N 
ATOM      2  H   CYS A   4     -14.579 -26.411  17.208  0.00  0.00    +0.150 HD
ATOM      3  C   HIS A   3     -13.961 -28.362  17.042  0.00  0.00    +0.241 C 
ATOM      4  O   HIS A   3     -13.947 -29.409  16.399  0.00  0.00    -0.273 OA
ENDROOT
BRANCH   3   5
ATOM      5  CA  HIS A   3     -13.247 -28.272  18.392  0.00  0.00    +0.155 C 
BRANCH   5   6
ATOM      6  N   HIS A   3     -13.001 -26.908  18.835  0.00  0.00    -0.297 N 
ATOM      7  H   HIS A   3     -13.426 -26.567  19.721  0.00  0.00    +0.150 HD
ATOM      8  C   ALA A   2     -12.234 -26.095  18.112  0.00  0.00    +0.241 C 
ATOM      9  O   ALA A   2     -11.726 -26.443  17.041  0.00  0.00    -0.273 OA
BRANCH   8  10
ATOM     10  CA  ALA A   2     -12.006 -24.680  18.664  0.00  0.00    +0.149 C 
ATOM     11  CB  ALA A   2     -10.827 -24.679  19.629  0.00  0.00    +0.031 C 
BRANCH  10  12
ATOM     12  N   ALA A   2     -13.208 -24.183  19.332  0.00  0.00    -0.297 N 
ATOM     13  H   ALA A   2     -13.181 -23.946  20.344  0.00  0.00    +0.150 HD
ATOM     14  C   ALA A   1     -14.339 -24.034  18.640  0.00  0.00    +0.238 C 
ATOM     15  O   ALA A   1     -14.418 -24.304  17.429  0.00  0.00    -0.274 OA
BRANCH  14  16
ATOM     16  CA  ALA A   1     -15.552 -23.517  19.404  0.00  0.00    +0.145 C 
ATOM     17  CB  ALA A   1     -16.412 -24.677  19.869  0.00  0.00    +0.028 C 
BRANCH  16  18
ATOM     18  N   ALA A   1     -16.341 -22.618  18.561  0.00  0.00    -0.238 NA
ATOM     19  H   ALA A   1     -17.098 -23.010  17.965  0.00  0.00    +0.142 HD
ENDBRANCH  16  18
ENDBRANCH  14  16
ENDBRANCH  10  12
ENDBRANCH   8  10
ENDBRANCH   5   6
BRANCH   5  20
ATOM     20  CB  HIS A   3     -14.022 -29.050  19.456  0.00  0.00    +0.076 C 
BRANCH  20  21
ATOM     21  CG  HIS A   3     -15.502 -28.823  19.433  0.00  0.00    +0.082 A 
ATOM     22  ND1 HIS A   3     -16.141 -28.005  20.342  0.00  0.00    -0.227 NA
ATOM     23  CE1 HIS A   3     -17.446 -28.059  20.141  0.00  0.00    +0.199 A 
ATOM     24  NE2 HIS A   3     -17.678 -28.880  19.131  0.00  0.00    -0.221 NA
ATOM     25  CD2 HIS A   3     -16.479 -29.369  18.668  0.00  0.00    +0.115 A 
ENDBRANCH  20  21
ENDBRANCH   5  20
ENDBRANCH   3   5
BRANCH   1  26
ATOM     26  CA  CYS A   4     -15.276 -27.240  15.332  0.00  0.00    +0.149 C 
BRANCH  26  27
ATOM     27  C   CYS A   4     -14.265 -27.229  14.210  0.00  0.00    +0.228 C 
ATOM     28  O   CYS A   4     -14.549 -27.688  13.099  0.00  0.00    -0.286 OA
ENDBRANCH  26  27
BRANCH  26  29
ATOM     29  CB  CYS A   4     -16.153 -25.985  15.210  0.00  0.00    +0.096 C 
BRANCH  29  30
ATOM     30  SG  CYS A   4     -17.672 -26.116  16.166  0.00  0.00    -0.080 S 
BRANCH  30  31
ATOM     31  SG  ALA A   2     -18.882 -27.262  14.998  0.00  0.00    -0.080 S 
BRANCH  31  32
ATOM     32  CB  ALA A   2     -19.791 -25.957  14.100  0.00  0.00    +0.096 C 
BRANCH  32  33
ATOM     33  CA  ALA A   2     -21.175 -26.258  13.553  0.00  0.00    +0.149 C 
BRANCH  33  36
ATOM     34  C   ALA A   1     -20.568 -28.019  12.042  0.00  0.00    +0.238 C 
ATOM     35  O   ALA A   1     -20.421 -28.814  12.972  0.00  0.00    -0.274 OA
ATOM     36  N   ALA A   2     -21.007 -26.782  12.217  0.00  0.00    -0.298 N 
ATOM     37  H   ALA A   2     -21.231 -26.188  11.393  0.00  0.00    +0.150 HD
BRANCH  34  38
ATOM     38  CA  ALA A   1     -20.307 -28.426  10.605  0.00  0.00    +0.145 C 
BRANCH  38  39
ATOM     39  N   ALA A   1     -21.352 -27.969   9.699  0.00  0.00    -0.238 NA
ATOM     40  H   ALA A   1     -21.387 -26.967   9.421  0.00  0.00    +0.142 HD
ENDBRANCH  38  39
BRANCH  38  41
ATOM     41  CB  ALA A   1     -18.958 -27.837  10.200  0.00  0.00    +0.026 C 
BRANCH  41  42
ATOM     42  CG  ALA A   1     -18.411 -28.098   8.802  0.00  0.00    +0.002 C 
ATOM     43  CD2 ALA A   1     -17.943 -29.543   8.695  0.00  0.00    +0.000 C 
ATOM     44  CD1 ALA A   1     -17.265 -27.137   8.524  0.00  0.00    +0.000 C 
ENDBRANCH  41  42
ENDBRANCH  38  41
ENDBRANCH  34  38
ENDBRANCH  33  36
BRANCH  33  45
ATOM     45  C   ALA A   2     -21.919 -24.932  13.517  0.00  0.00    +0.228 C 
ATOM     46  O   ALA A   2     -22.178 -24.370  12.448  0.00  0.00    -0.286 OA
ENDBRANCH  33  45
ENDBRANCH  32  33
ENDBRANCH  31  32
ENDBRANCH  30  31
ENDBRANCH  29  30
ENDBRANCH  26  29
ENDBRANCH   1  26
TORSDOF 21
REMARK  Name = ../refined-set-2016/1d3d/1d3d_pocket.pdb
REMARK  228 active torsions:
REMARK  status: ('A' for Active; 'I' for Inactive)
REMARK    1  A    between atoms: _1  and  _5
REMARK    2  A    between atoms: _5  and  _6
REMARK    3  A    between atoms: _5  and  _8
REMARK    4  A    between atoms: _8  and  _9
REMARK    5  A    between atoms: _12  and  _14
REMARK    6  A    between atoms: _14  and  _15
REMARK    7  A    between atoms: _14  and  _17
REMARK    8  A    between atoms: _20  and  _22
REMARK    9  A    between atoms: _22  and  _23
REMARK   10  A    between atoms: _22  and  _25
REMARK   11  A    between atoms: _25  and  _26
REMARK   12  A    between atoms: _29  and  _31
REMARK   13  A    between atoms: _31  and  _32
REMARK   14  A    between atoms: _31  and  _34
REMARK   15  A    between atoms: _34  and  _35
REMARK   16  A    between atoms: _35  and  _65
REMARK   17  A    between atoms: _36  and  _38
REMARK   18  A    between atoms: _38  and  _39
REMARK   19  A    between atoms: _42  and  _44
REMARK   20  A    between atoms: _44  and  _45
REMARK   21  A    between atoms: _48  and  _50
REMARK   22  A    between atoms: _50  and  _51
REMARK   23  A    between atoms: _50  and  _53
REMARK   24  A    between atoms: _53  and  _54
REMARK   25  A    between atoms: _59  and  _61
REMARK   26  A    between atoms: _61  and  _62
REMARK   27  A    between atoms: _61  and  _64
REMARK   28  A    between atoms: _64  and  _65
REMARK   29  A    between atoms: _66  and  _68
REMARK   30  A    between atoms: _68  and  _69
REMARK   31  A    between atoms: _68  and  _71
REMARK   32  A    between atoms: _71  and  _72
REMARK   33  A    between atoms: _75  and  _77
REMARK   34  A    between atoms: _77  and  _78
REMARK   35  A    between atoms: _77  and  _80
REMARK   36  A    between atoms: _80  and  _81
REMARK   37  A    between atoms: _86  and  _87
REMARK   38  A    between atoms: _90  and  _91
REMARK   39  A    between atoms: _97  and  _98
REMARK   40  A    between atoms: _103  and  _105
REMARK   41  A    between atoms: _105  and  _106
REMARK   42  A    between atoms: _105  and  _108
REMARK   43  A    between atoms: _108  and  _109
REMARK   44  A    between atoms: _119  and  _121
REMARK   45  A    between atoms: _121  and  _122
REMARK   46  A    between atoms: _121  and  _124
REMARK   47  A    between atoms: _124  and  _125
REMARK   48  A    between atoms: _128  and  _130
REMARK   49  A    between atoms: _130  and  _131
REMARK   50  A    between atoms: _130  and  _133
REMARK   51  A    between atoms: _133  and  _134
REMARK   52  A    between atoms: _134  and  _135
REMARK   53  A    between atoms: _135  and  _136
REMARK   54  A    between atoms: _136  and  _137
REMARK   55  A    between atoms: _141  and  _143
REMARK   56  A    between atoms: _143  and  _144
REMARK   57  A    between atoms: _143  and  _146
REMARK   58  A    between atoms: _146  and  _147
REMARK   59  A    between atoms: _152  and  _153
REMARK   60  A    between atoms: _155  and  _157
REMARK   61  A    between atoms: _157  and  _158
REMARK   62  A    between atoms: _157  and  _160
REMARK   63  A    between atoms: _160  and  _161
REMARK   64  A    between atoms: _166  and  _168
REMARK   65  A    between atoms: _168  and  _169
REMARK   66  A    between atoms: _168  and  _171
REMARK   67  A    between atoms: _171  and  _172
REMARK   68  A    between atoms: _182  and  _184
REMARK   69  A    between atoms: _184  and  _185
REMARK   70  A    between atoms: _184  and  _187
REMARK   71  A    between atoms: _187  and  _188
REMARK   72  A    between atoms: _188  and  _189
REMARK   73  A    between atoms: _189  and  _190
REMARK   74  A    between atoms: _199  and  _201
REMARK   75  A    between atoms: _201  and  _202
REMARK   76  A    between atoms: _201  and  _204
REMARK   77  A    between atoms: _204  and  _205
REMARK   78  A    between atoms: _205  and  _206
REMARK   79  A    between atoms: _209  and  _211
REMARK   80  A    between atoms: _211  and  _212
REMARK   81  A    between atoms: _211  and  _214
REMARK   82  A    between atoms: _214  and  _215
REMARK   83  A    between atoms: _220  and  _222
REMARK   84  A    between atoms: _222  and  _223
REMARK   85  A    between atoms: _222  and  _225
REMARK   86  A    between atoms: _225  and  _226
REMARK   87  A    between atoms: _229  and  _231
REMARK   88  A    between atoms: _231  and  _232
REMARK   89  A    between atoms: _231  and  _234
REMARK   90  A    between atoms: _234  and  _235
REMARK   91  A    between atoms: _238  and  _240
REMARK   92  A    between atoms: _240  and  _241
REMARK   93  A    between atoms: _240  and  _243
REMARK   94  A    between atoms: _243  and  _244
REMARK   95  A    between atoms: _247  and  _249
REMARK   96  A    between atoms: _249  and  _250
REMARK   97  A    between atoms: _249  and  _252
REMARK   98  A    between atoms: _255  and  _257
REMARK   99  A    between atoms: _257  and  _258
REMARK  100  A    between atoms: _257  and  _260
REMARK  101  A    between atoms: _260  and  _261
REMARK  102  A    between atoms: _266  and  _268
REMARK  103  A    between atoms: _268  and  _269
REMARK  104  A    between atoms: _268  and  _271
REMARK  105  A    between atoms: _271  and  _272
REMARK  106  A    between atoms: _272  and  _273
REMARK  107  A    between atoms: _276  and  _278
REMARK  108  A    between atoms: _278  and  _279
REMARK  109  A    between atoms: _278  and  _281
REMARK  110  A    between atoms: _281  and  _282
REMARK  111  A    between atoms: _285  and  _287
REMARK  112  A    between atoms: _287  and  _288
REMARK  113  A    between atoms: _287  and  _290
REMARK  114  A    between atoms: _290  and  _291
REMARK  115  A    between atoms: _294  and  _296
REMARK  116  A    between atoms: _296  and  _297
REMARK  117  A    between atoms: _296  and  _299
REMARK  118  A    between atoms: _299  and  _300
REMARK  119  A    between atoms: _303  and  _305
REMARK  120  A    between atoms: _305  and  _306
REMARK  121  A    between atoms: _305  and  _308
REMARK  122  A    between atoms: _308  and  _309
REMARK  123  A    between atoms: _309  and  _310
REMARK  124  A    between atoms: _310  and  _311
REMARK  125  A    between atoms: _320  and  _322
REMARK  126  A    between atoms: _322  and  _323
REMARK  127  A    between atoms: _322  and  _325
REMARK  128  A    between atoms: _325  and  _326
REMARK  129  A    between atoms: _326  and  _327
REMARK  130  A    between atoms: _329  and  _331
REMARK  131  A    between atoms: _331  and  _332
REMARK  132  A    between atoms: _335  and  _337
REMARK  133  A    between atoms: _337  and  _338
REMARK  134  A    between atoms: _340  and  _342
REMARK  135  A    between atoms: _342  and  _343
REMARK  136  A    between atoms: _342  and  _345
REMARK  137  A    between atoms: _345  and  _346
REMARK  138  A    between atoms: _349  and  _351
REMARK  139  A    between atoms: _351  and  _352
REMARK  140  A    between atoms: _355  and  _357
REMARK  141  A    between atoms: _357  and  _358
REMARK  142  A    between atoms: _357  and  _360
REMARK  143  A    between atoms: _360  and  _361
REMARK  144  A    between atoms: _361  and  _471
REMARK  145  A    between atoms: _362  and  _364
REMARK  146  A    between atoms: _364  and  _365
REMARK  147  A    between atoms: _364  and  _367
REMARK  148  A    between atoms: _367  and  _368
REMARK  149  A    between atoms: _368  and  _369
REMARK  150  A    between atoms: _372  and  _374
REMARK  151  A    between atoms: _374  and  _375
REMARK  152  A    between atoms: _377  and  _379
REMARK  153  A    between atoms: _379  and  _380
REMARK  154  A    between atoms: _379  and  _382
REMARK  155  A    between atoms: _382  and  _383
REMARK  156  A    between atoms: _386  and  _388
REMARK  157  A    between atoms: _388  and  _389
REMARK  158  A    between atoms: _388  and  _391
REMARK  159  A    between atoms: _391  and  _392
REMARK  160  A    between atoms: _394  and  _396
REMARK  161  A    between atoms: _396  and  _397
REMARK  162  A    between atoms: _399  and  _401
REMARK  163  A    between atoms: _401  and  _402
REMARK  164  A    between atoms: _404  and  _406
REMARK  165  A    between atoms: _406  and  _407
REMARK  166  A    between atoms: _406  and  _409
REMARK  167  A    between atoms: _409  and  _410
REMARK  168  A    between atoms: _413  and  _415
REMARK  169  A    between atoms: _415  and  _416
REMARK  170  A    between atoms: _415  and  _418
REMARK  171  A    between atoms: _421  and  _423
REMARK  172  A    between atoms: _423  and  _424
REMARK  173  A    between atoms: _423  and  _426
REMARK  174  A    between atoms: _426  and  _427
REMARK  175  A    between atoms: _429  and  _431
REMARK  176  A    between atoms: _431  and  _432
REMARK  177  A    between atoms: _431  and  _434
REMARK  178  A    between atoms: _434  and  _435
REMARK  179  A    between atoms: _445  and  _447
REMARK  180  A    between atoms: _447  and  _448
REMARK  181  A    between atoms: _450  and  _452
REMARK  182  A    between atoms: _452  and  _453
REMARK  183  A    between atoms: _452  and  _455
REMARK  184  A    between atoms: _455  and  _456
REMARK  185  A    between atoms: _456  and  _457
REMARK  186  A    between atoms: _460  and  _462
REMARK  187  A    between atoms: _462  and  _463
REMARK  188  A    between atoms: _465  and  _467
REMARK  189  A    between atoms: _467  and  _468
REMARK  190  A    between atoms: _467  and  _470
REMARK  191  A    between atoms: _470  and  _471
REMARK  192  A    between atoms: _472  and  _474
REMARK  193  A    between atoms: _474  and  _475
REMARK  194  A    between atoms: _474  and  _477
REMARK  195  A    between atoms: _477  and  _478
REMARK  196  A    between atoms: _481  and  _483
REMARK  197  A    between atoms: _483  and  _484
REMARK  198  A    between atoms: _483  and  _486
REMARK  199  A    between atoms: _486  and  _487
REMARK  200  A    between atoms: _487  and  _488
REMARK  201  A    between atoms: _488  and  _489
REMARK  202  A    between atoms: _498  and  _500
REMARK  203  A    between atoms: _500  and  _501
REMARK  204  A    between atoms: _500  and  _503
REMARK  205  A    between atoms: _503  and  _504
REMARK  206  A    between atoms: _504  and  _505
REMARK  207  A    between atoms: _505  and  _506
REMARK  208  A    between atoms: _506  and  _507
REMARK  209  A    between atoms: _511  and  _513
REMARK  210  A    between atoms: _513  and  _514
REMARK  211  A    between atoms: _513  and  _516
REMARK  212  A    between atoms: _516  and  _517
REMARK  213  A    between atoms: _522  and  _523
REMARK  214  A    between atoms: _525  and  _527
REMARK  215  A    between atoms: _527  and  _528
REMARK  216  A    between atoms: _530  and  _532
REMARK  217  A    between atoms: _532  and  _533
REMARK  218  A    between atoms: _532  and  _535
REMARK  219  A    between atoms: _535  and  _536
REMARK  220  A    between atoms: _542  and  _544
REMARK  221  A    between atoms: _544  and  _545
REMARK  222  A    between atoms: _544  and  _547
REMARK  223  A    between atoms: _547  and  _548
REMARK  224  A    between atoms: _553  and  _554
REMARK  225  A    between atoms: _556  and  _558
REMARK  226  A    between atoms: _558  and  _559
REMARK  227  A    between atoms: _558  and  _561
REMARK  228  A    between atoms: _561  and  _562
REMARK                            x       y       z     vdW  Elec       q    Type
REMARK                         _______ _______ _______ _____ _____    ______ ____
ROOT
ATOM      1  C   PRO A   4     -10.031 -38.088  16.500  0.00  0.00    +0.241 C 
ATOM      2  O   PRO A   4     -10.250 -39.281  16.285  0.00  0.00    -0.273 OA
ATOM      3  N   TRP A   5     -10.669 -37.110  15.863  0.00  0.00    -0.297 N 
ATOM      4  H   TRP A   5     -10.452 -36.123  16.107  0.00  0.00    +0.150 HD
ENDROOT
BRANCH   1  10
ATOM      5  C   PRO A   3      -7.839 -36.110  16.136  0.00  0.00    +0.244 C 
ATOM      6  N   PRO A   4      -8.417 -36.344  17.322  0.00  0.00    -0.272 N 
ATOM      7  CD  PRO A   4      -8.546 -35.489  18.512  0.00  0.00    +0.094 C 
ATOM      8  CG  PRO A   4      -8.814 -36.482  19.606  0.00  0.00    +0.024 C 
ATOM      9  CB  PRO A   4      -9.601 -37.574  18.946  0.00  0.00    +0.031 C 
ATOM     10  CA  PRO A   4      -8.996 -37.674  17.545  0.00  0.00    +0.152 C 
ATOM     11  O   PRO A   3      -7.777 -36.975  15.274  0.00  0.00    -0.273 OA
BRANCH   5  17
ATOM     12  C   TYR A   2      -9.290 -33.416  16.236  0.00  0.00    +0.244 C 
ATOM     13  N   PRO A   3      -7.969 -33.577  16.415  0.00  0.00    -0.272 N 
ATOM     14  CD  PRO A   3      -7.083 -32.659  17.159  0.00  0.00    +0.094 C 
ATOM     15  CG  PRO A   3      -5.702 -33.075  16.707  0.00  0.00    +0.024 C 
ATOM     16  CB  PRO A   3      -5.831 -34.566  16.481  0.00  0.00    +0.031 C 
ATOM     17  CA  PRO A   3      -7.228 -34.728  15.881  0.00  0.00    +0.152 C 
ATOM     18  O   TYR A   2      -9.981 -34.241  15.625  0.00  0.00    -0.273 OA
BRANCH  12  19
ATOM     19  CA  TYR A   2      -9.916 -32.165  16.843  0.00  0.00    +0.153 C 
BRANCH  19  22
ATOM     20  C   LEU A   1      -9.784 -29.790  16.289  0.00  0.00    +0.238 C 
ATOM     21  O   LEU A   1     -10.103 -29.417  17.426  0.00  0.00    -0.274 OA
ATOM     22  N   TYR A   2      -9.701 -31.061  15.921  0.00  0.00    -0.297 N 
ATOM     23  H   TYR A   2      -9.472 -31.278  14.930  0.00  0.00    +0.150 HD
BRANCH  20  24
ATOM     24  CA  LEU A   1      -9.475 -28.800  15.187  0.00  0.00    +0.145 C 
BRANCH  24  25
ATOM     25  N   LEU A   1     -10.574 -27.898  14.913  0.00  0.00    -0.238 NA
ATOM     26  H   LEU A   1     -11.105 -27.476  15.701  0.00  0.00    +0.142 HD
ENDBRANCH  24  25
BRANCH  24  27
ATOM     27  CB  LEU A   1      -8.230 -27.986  15.552  0.00  0.00    +0.026 C 
BRANCH  27  28
ATOM     28  CG  LEU A   1      -7.008 -28.737  16.096  0.00  0.00    +0.002 C 
ATOM     29  CD2 LEU A   1      -6.101 -27.751  16.820  0.00  0.00    +0.000 C 
ATOM     30  CD1 LEU A   1      -6.253 -29.402  14.959  0.00  0.00    +0.000 C 
ENDBRANCH  27  28
ENDBRANCH  24  27
ENDBRANCH  20  24
ENDBRANCH  19  22
BRANCH  19  31
ATOM     31  CB  TYR A   2     -11.401 -32.394  17.092  0.00  0.00    +0.055 C 
BRANCH  31  32
ATOM     32  CG  TYR A   2     -11.631 -33.263  18.290  0.00  0.00    -0.020 A 
ATOM     33  CD2 TYR A   2     -11.161 -32.879  19.543  0.00  0.00    -0.001 A 
ATOM     34  CE2 TYR A   2     -11.309 -33.706  20.653  0.00  0.00    +0.036 A 
ATOM     35  CZ  TYR A   2     -11.935 -34.929  20.513  0.00  0.00    +0.134 A 
ATOM     36  CE1 TYR A   2     -12.418 -35.336  19.276  0.00  0.00    +0.036 A 
ATOM     37  CD1 TYR A   2     -12.264 -34.502  18.170  0.00  0.00    -0.001 A 
BRANCH  35  38
ATOM     38  OH  TYR A   2     -12.072 -35.744  21.609  0.00  0.00    -0.506 OA
ATOM     39  HH  TYR A   2     -11.675 -35.301  22.400  0.00  0.00    +0.292 HD
ENDBRANCH  35  38
ENDBRANCH  31  32
ENDBRANCH  19  31
ENDBRANCH  12  19
ENDBRANCH   5  17
ENDBRANCH   1  10
BRANCH   3  40
ATOM     40  CA  TRP A   5     -11.667 -37.384  14.829  0.00  0.00    +0.153 C 
BRANCH  40  41
ATOM     41  C   TRP A   5     -11.127 -36.951  13.475  0.00  0.00    +0.241 C 
ATOM     42  N   ASP A   6      -9.806 -36.863  13.374  0.00  0.00    -0.297 N 
ATOM     43  H   ASP A   6      -9.223 -37.083  14.207  0.00  0.00    +0.150 HD
ATOM     44  O   TRP A   5     -11.893 -36.690  12.546  0.00  0.00    -0.273 OA
BRANCH  42  45
ATOM     45  CA  ASP A   6      -9.145 -36.469  12.136  0.00  0.00    +0.160 C 
BRANCH  45  46
ATOM     46  C   ASP A   6      -9.728 -35.186  11.565  0.00  0.00    +0.241 C 
ATOM     47  N   LYS A   7      -9.922 -34.205  12.431  0.00  0.00    -0.298 N 
ATOM     48  H   LYS A   7      -9.673 -34.348  13.431  0.00  0.00    +0.150 HD
ATOM     49  O   ASP A   6      -9.994 -35.084  10.366  0.00  0.00    -0.273 OA
BRANCH  47  50
ATOM     50  CA  LYS A   7     -10.475 -32.936  12.010  0.00  0.00    +0.137 C 
BRANCH  50  51
ATOM     51  C   LYS A   7      -9.431 -31.832  12.116  0.00  0.00    +0.227 C 
ATOM     52  O   LYS A   7      -8.823 -31.635  13.163  0.00  0.00    -0.286 OA
ENDBRANCH  50  51
BRANCH  50  53
ATOM     53  CB  LYS A   7     -11.689 -32.615  12.871  0.00  0.00    +0.028 C 
BRANCH  53  54
ATOM     54  CG  LYS A   7     -12.163 -31.183  12.774  0.00  0.00    -0.000 C 
BRANCH  54  55
ATOM     55  CD  LYS A   7     -13.645 -31.130  12.519  0.00  0.00    -0.024 C 
BRANCH  55  56
ATOM     56  CE  LYS A   7     -14.437 -31.297  13.784  0.00  0.00    -0.086 C 
BRANCH  56  57
ATOM     57  NZ  LYS A   7     -15.758 -31.886  13.476  0.00  0.00    +0.380 N 
ATOM     58  HZ1 LYS A   7     -16.300 -31.998  14.357  0.00  0.00    -0.089 HD
ATOM     59  HZ2 LYS A   7     -15.626 -32.815  13.028  0.00  0.00    -0.089 HD
ATOM     60  HZ3 LYS A   7     -16.274 -31.257  12.828  0.00  0.00    -0.089 HD
ENDBRANCH  56  57
ENDBRANCH  55  56
ENDBRANCH  54  55
ENDBRANCH  53  54
ENDBRANCH  50  53
ENDBRANCH  47  50
ENDBRANCH  45  46
BRANCH  45  61
ATOM     61  CB  ASP A   6      -9.259 -37.586  11.100  0.00  0.00    +0.143 C 
BRANCH  61  62
ATOM     62  CG  ASP A   6      -8.312 -38.728  11.383  0.00  0.00    +0.367 C 
ATOM     63  OD2 ASP A   6      -8.793 -39.809  11.777  0.00  0.00    -0.246 OA
ATOM     64  OD1 ASP A   6      -7.087 -38.536  11.215  0.00  0.00    -0.246 OA
ENDBRANCH  61  62
ENDBRANCH  45  61
ENDBRANCH  42  45
ENDBRANCH  40  41
BRANCH  40  65
ATOM     65  CB  TRP A   5     -12.968 -36.631  15.110  0.00  0.00    +0.057 C 
BRANCH  65  66
ATOM     66  CG  TRP A   5     -13.729 -37.114  16.305  0.00  0.00    -0.002 A 
ATOM     67  CD1 TRP A   5     -13.495 -38.248  17.029  0.00  0.00    +0.068 A 
ATOM     68  NE1 TRP A   5     -14.401 -38.350  18.057  0.00  0.00    -0.352 N 
ATOM     69  HE1 TRP A   5     -14.439 -39.120  18.755  0.00  0.00    +0.166 HD
ATOM     70  CE2 TRP A   5     -15.245 -37.273  18.012  0.00  0.00    +0.056 A 
ATOM     71  CZ2 TRP A   5     -16.321 -36.933  18.841  0.00  0.00    +0.017 A 
ATOM     72  CH2 TRP A   5     -17.003 -35.775  18.559  0.00  0.00    +0.001 A 
ATOM     73  CZ3 TRP A   5     -16.637 -34.956  17.478  0.00  0.00    +0.000 A 
ATOM     74  CE3 TRP A   5     -15.563 -35.293  16.650  0.00  0.00    +0.001 A 
ATOM     75  CD2 TRP A   5     -14.850 -36.471  16.919  0.00  0.00    +0.013 A 
ENDBRANCH  65  66
ENDBRANCH  40  65
ENDBRANCH   3  40
TORSDOF 26
REMARK  Name = ../refined-set-2016/1d3d/1d3d_pocket.pdb
REMARK  228 active torsions:
REMARK  status: ('A' for Active; 'I' for Inactive)
REMARK    1  A    between atoms: _1  and  _5
REMARK    2  A    between atoms: _5  and  _6
REMARK    3  A    between atoms: _5  and  _8
REMARK    4  A    between atoms: _8  and  _9
REMARK    5  A    between atoms: _12  and  _14
REMARK    6  A    between atoms: _14  and  _15
REMARK    7  A    between atoms: _14  and  _17
REMARK    8  A    between atoms: _20  and  _22
REMARK    9  A    between atoms: _22  and  _23
REMARK   10  A    between atoms: _22  and  _25
REMARK   11  A    between atoms: _25  and  _26
REMARK   12  A    between atoms: _29  and  _31
REMARK   13  A    between atoms: _31  and  _32
REMARK   14  A    between atoms: _31  and  _34
REMARK   15  A    between atoms: _34  and  _35
REMARK   16  A    between atoms: _35  and  _65
REMARK   17  A    between atoms: _36  and  _38
REMARK   18  A    between atoms: _38  and  _39
REMARK   19  A    between atoms: _42  and  _44
REMARK   20  A    between atoms: _44  and  _45
REMARK   21  A    between atoms: _48  and  _50
REMARK   22  A    between atoms: _50  and  _51
REMARK   23  A    between atoms: _50  and  _53
REMARK   24  A    between atoms: _53  and  _54
REMARK   25  A    between atoms: _59  and  _61
REMARK   26  A    between atoms: _61  and  _62
REMARK   27  A    between atoms: _61  and  _64
REMARK   28  A    between atoms: _64  and  _65
REMARK   29  A    between atoms: _66  and  _68
REMARK   30  A    between atoms: _68  and  _69
REMARK   31  A    between atoms: _68  and  _71
REMARK   32  A    between atoms: _71  and  _72
REMARK   33  A    between atoms: _75  and  _77
REMARK   34  A    between atoms: _77  and  _78
REMARK   35  A    between atoms: _77  and  _80
REMARK   36  A    between atoms: _80  and  _81
REMARK   37  A    between atoms: _86  and  _87
REMARK   38  A    between atoms: _90  and  _91
REMARK   39  A    between atoms: _97  and  _98
REMARK   40  A    between atoms: _103  and  _105
REMARK   41  A    between atoms: _105  and  _106
REMARK   42  A    between atoms: _105  and  _108
REMARK   43  A    between atoms: _108  and  _109
REMARK   44  A    between atoms: _119  and  _121
REMARK   45  A    between atoms: _121  and  _122
REMARK   46  A    between atoms: _121  and  _124
REMARK   47  A    between atoms: _124  and  _125
REMARK   48  A    between atoms: _128  and  _130
REMARK   49  A    between atoms: _130  and  _131
REMARK   50  A    between atoms: _130  and  _133
REMARK   51  A    between atoms: _133  and  _134
REMARK   52  A    between atoms: _134  and  _135
REMARK   53  A    between atoms: _135  and  _136
REMARK   54  A    between atoms: _136  and  _137
REMARK   55  A    between atoms: _141  and  _143
REMARK   56  A    between atoms: _143  and  _144
REMARK   57  A    between atoms: _143  and  _146
REMARK   58  A    between atoms: _146  and  _147
REMARK   59  A    between atoms: _152  and  _153
REMARK   60  A    between atoms: _155  and  _157
REMARK   61  A    between atoms: _157  and  _158
REMARK   62  A    between atoms: _157  and  _160
REMARK   63  A    between atoms: _160  and  _161
REMARK   64  A    between atoms: _166  and  _168
REMARK   65  A    between atoms: _168  and  _169
REMARK   66  A    between atoms: _168  and  _171
REMARK   67  A    between atoms: _171  and  _172
REMARK   68  A    between atoms: _182  and  _184
REMARK   69  A    between atoms: _184  and  _185
REMARK   70  A    between atoms: _184  and  _187
REMARK   71  A    between atoms: _187  and  _188
REMARK   72  A    between atoms: _188  and  _189
REMARK   73  A    between atoms: _189  and  _190
REMARK   74  A    between atoms: _199  and  _201
REMARK   75  A    between atoms: _201  and  _202
REMARK   76  A    between atoms: _201  and  _204
REMARK   77  A    between atoms: _204  and  _205
REMARK   78  A    between atoms: _205  and  _206
REMARK   79  A    between atoms: _209  and  _211
REMARK   80  A    between atoms: _211  and  _212
REMARK   81  A    between atoms: _211  and  _214
REMARK   82  A    between atoms: _214  and  _215
REMARK   83  A    between atoms: _220  and  _222
REMARK   84  A    between atoms: _222  and  _223
REMARK   85  A    between atoms: _222  and  _225
REMARK   86  A    between atoms: _225  and  _226
REMARK   87  A    between atoms: _229  and  _231
REMARK   88  A    between atoms: _231  and  _232
REMARK   89  A    between atoms: _231  and  _234
REMARK   90  A    between atoms: _234  and  _235
REMARK   91  A    between atoms: _238  and  _240
REMARK   92  A    between atoms: _240  and  _241
REMARK   93  A    between atoms: _240  and  _243
REMARK   94  A    between atoms: _243  and  _244
REMARK   95  A    between atoms: _247  and  _249
REMARK   96  A    between atoms: _249  and  _250
REMARK   97  A    between atoms: _249  and  _252
REMARK   98  A    between atoms: _255  and  _257
REMARK   99  A    between atoms: _257  and  _258
REMARK  100  A    between atoms: _257  and  _260
REMARK  101  A    between atoms: _260  and  _261
REMARK  102  A    between atoms: _266  and  _268
REMARK  103  A    between atoms: _268  and  _269
REMARK  104  A    between atoms: _268  and  _271
REMARK  105  A    between atoms: _271  and  _272
REMARK  106  A    between atoms: _272  and  _273
REMARK  107  A    between atoms: _276  and  _278
REMARK  108  A    between atoms: _278  and  _279
REMARK  109  A    between atoms: _278  and  _281
REMARK  110  A    between atoms: _281  and  _282
REMARK  111  A    between atoms: _285  and  _287
REMARK  112  A    between atoms: _287  and  _288
REMARK  113  A    between atoms: _287  and  _290
REMARK  114  A    between atoms: _290  and  _291
REMARK  115  A    between atoms: _294  and  _296
REMARK  116  A    between atoms: _296  and  _297
REMARK  117  A    between atoms: _296  and  _299
REMARK  118  A    between atoms: _299  and  _300
REMARK  119  A    between atoms: _303  and  _305
REMARK  120  A    between atoms: _305  and  _306
REMARK  121  A    between atoms: _305  and  _308
REMARK  122  A    between atoms: _308  and  _309
REMARK  123  A    between atoms: _309  and  _310
REMARK  124  A    between atoms: _310  and  _311
REMARK  125  A    between atoms: _320  and  _322
REMARK  126  A    between atoms: _322  and  _323
REMARK  127  A    between atoms: _322  and  _325
REMARK  128  A    between atoms: _325  and  _326
REMARK  129  A    between atoms: _326  and  _327
REMARK  130  A    between atoms: _329  and  _331
REMARK  131  A    between atoms: _331  and  _332
REMARK  132  A    between atoms: _335  and  _337
REMARK  133  A    between atoms: _337  and  _338
REMARK  134  A    between atoms: _340  and  _342
REMARK  135  A    between atoms: _342  and  _343
REMARK  136  A    between atoms: _342  and  _345
REMARK  137  A    between atoms: _345  and  _346
REMARK  138  A    between atoms: _349  and  _351
REMARK  139  A    between atoms: _351  and  _352
REMARK  140  A    between atoms: _355  and  _357
REMARK  141  A    between atoms: _357  and  _358
REMARK  142  A    between atoms: _357  and  _360
REMARK  143  A    between atoms: _360  and  _361
REMARK  144  A    between atoms: _361  and  _471
REMARK  145  A    between atoms: _362  and  _364
REMARK  146  A    between atoms: _364  and  _365
REMARK  147  A    between atoms: _364  and  _367
REMARK  148  A    between atoms: _367  and  _368
REMARK  149  A    between atoms: _368  and  _369
REMARK  150  A    between atoms: _372  and  _374
REMARK  151  A    between atoms: _374  and  _375
REMARK  152  A    between atoms: _377  and  _379
REMARK  153  A    between atoms: _379  and  _380
REMARK  154  A    between atoms: _379  and  _382
REMARK  155  A    between atoms: _382  and  _383
REMARK  156  A    between atoms: _386  and  _388
REMARK  157  A    between atoms: _388  and  _389
REMARK  158  A    between atoms: _388  and  _391
REMARK  159  A    between atoms: _391  and  _392
REMARK  160  A    between atoms: _394  and  _396
REMARK  161  A    between atoms: _396  and  _397
REMARK  162  A    between atoms: _399  and  _401
REMARK  163  A    between atoms: _401  and  _402
REMARK  164  A    between atoms: _404  and  _406
REMARK  165  A    between atoms: _406  and  _407
REMARK  166  A    between atoms: _406  and  _409
REMARK  167  A    between atoms: _409  and  _410
REMARK  168  A    between atoms: _413  and  _415
REMARK  169  A    between atoms: _415  and  _416
REMARK  170  A    between atoms: _415  and  _418
REMARK  171  A    between atoms: _421  and  _423
REMARK  172  A    between atoms: _423  and  _424
REMARK  173  A    between atoms: _423  and  _426
REMARK  174  A    between atoms: _426  and  _427
REMARK  175  A    between atoms: _429  and  _431
REMARK  176  A    between atoms: _431  and  _432
REMARK  177  A    between atoms: _431  and  _434
REMARK  178  A    between atoms: _434  and  _435
REMARK  179  A    between atoms: _445  and  _447
REMARK  180  A    between atoms: _447  and  _448
REMARK  181  A    between atoms: _450  and  _452
REMARK  182  A    between atoms: _452  and  _453
REMARK  183  A    between atoms: _452  and  _455
REMARK  184  A    between atoms: _455  and  _456
REMARK  185  A    between atoms: _456  and  _457
REMARK  186  A    between atoms: _460  and  _462
REMARK  187  A    between atoms: _462  and  _463
REMARK  188  A    between atoms: _465  and  _467
REMARK  189  A    between atoms: _467  and  _468
REMARK  190  A    between atoms: _467  and  _470
REMARK  191  A    between atoms: _470  and  _471
REMARK  192  A    between atoms: _472  and  _474
REMARK  193  A    between atoms: _474  and  _475
REMARK  194  A    between atoms: _474  and  _477
REMARK  195  A    between atoms: _477  and  _478
REMARK  196  A    between atoms: _481  and  _483
REMARK  197  A    between atoms: _483  and  _484
REMARK  198  A    between atoms: _483  and  _486
REMARK  199  A    between atoms: _486  and  _487
REMARK  200  A    between atoms: _487  and  _488
REMARK  201  A    between atoms: _488  and  _489
REMARK  202  A    between atoms: _498  and  _500
REMARK  203  A    between atoms: _500  and  _501
REMARK  204  A    between atoms: _500  and  _503
REMARK  205  A    between atoms: _503  and  _504
REMARK  206  A    between atoms: _504  and  _505
REMARK  207  A    between atoms: _505  and  _506
REMARK  208  A    between atoms: _506  and  _507
REMARK  209  A    between atoms: _511  and  _513
REMARK  210  A    between atoms: _513  and  _514
REMARK  211  A    between atoms: _513  and  _516
REMARK  212  A    between atoms: _516  and  _517
REMARK  213  A    between atoms: _522  and  _523
REMARK  214  A    between atoms: _525  and  _527
REMARK  215  A    between atoms: _527  and  _528
REMARK  216  A    between atoms: _530  and  _532
REMARK  217  A    between atoms: _532  and  _533
REMARK  218  A    between atoms: _532  and  _535
REMARK  219  A    between atoms: _535  and  _536
REMARK  220  A    between atoms: _542  and  _544
REMARK  221  A    between atoms: _544  and  _545
REMARK  222  A    between atoms: _544  and  _547
REMARK  223  A    between atoms: _547  and  _548
REMARK  224  A    between atoms: _553  and  _554
REMARK  225  A    between atoms: _556  and  _558
REMARK  226  A    between atoms: _558  and  _559
REMARK  227  A    between atoms: _558  and  _561
REMARK  228  A    between atoms: _561  and  _562
REMARK                            x       y       z     vdW  Elec       q    Type
REMARK                         _______ _______ _______ _____ _____    ______ ____
ROOT
ATOM      1  CA  ARG A   4      -6.160 -34.137  24.290  0.00  0.00    +0.149 C 
ENDROOT
BRANCH   1   3
ATOM      2  C   TRP A   3      -7.756 -32.592  23.317  0.00  0.00    +0.241 C 
ATOM      3  N   ARG A   4      -6.560 -32.801  23.855  0.00  0.00    -0.297 N 
ATOM      4  H   ARG A   4      -5.901 -32.005  23.968  0.00  0.00    +0.150 HD
ATOM      5  O   TRP A   3      -8.589 -33.487  23.192  0.00  0.00    -0.273 OA
BRANCH   2   6
ATOM      6  CA  TRP A   3      -8.077 -31.168  22.867  0.00  0.00    +0.153 C 
BRANCH   6   9
ATOM      7  C   ASN A   2      -7.570 -29.767  24.793  0.00  0.00    +0.241 C 
ATOM      8  O   ASN A   2      -8.470 -30.286  25.452  0.00  0.00    -0.273 OA
ATOM      9  N   TRP A   3      -7.290 -30.137  23.545  0.00  0.00    -0.297 N 
ATOM     10  H   TRP A   3      -6.499 -29.686  23.043  0.00  0.00    +0.150 HD
BRANCH   7  11
ATOM     11  CA  ASN A   2      -6.694 -28.666  25.404  0.00  0.00    +0.158 C 
BRANCH  11  13
ATOM     12  C   TYR A   1      -6.467 -26.672  24.016  0.00  0.00    +0.239 C 
ATOM     13  N   ASN A   2      -7.084 -27.309  25.004  0.00  0.00    -0.297 N 
ATOM     14  H   ASN A   2      -7.862 -26.835  25.506  0.00  0.00    +0.150 HD
ATOM     15  O   TYR A   1      -5.551 -27.183  23.378  0.00  0.00    -0.274 OA
BRANCH  12  16
ATOM     16  CA  TYR A   1      -6.936 -25.233  23.710  0.00  0.00    +0.149 C 
BRANCH  16  17
ATOM     17  N   TYR A   1      -5.759 -24.399  23.910  0.00  0.00    -0.238 NA
ATOM     18  H   TYR A   1      -5.399 -23.839  23.111  0.00  0.00    +0.142 HD
ENDBRANCH  16  17
BRANCH  16  19
ATOM     19  CB  TYR A   1      -7.391 -25.081  22.251  0.00  0.00    +0.053 C 
BRANCH  19  20
ATOM     20  CG  TYR A   1      -8.263 -26.195  21.703  0.00  0.00    -0.020 A 
ATOM     21  CD2 TYR A   1      -9.396 -26.637  22.391  0.00  0.00    -0.001 A 
ATOM     22  CE2 TYR A   1     -10.216 -27.636  21.860  0.00  0.00    +0.036 A 
ATOM     23  CZ  TYR A   1      -9.894 -28.194  20.629  0.00  0.00    +0.134 A 
ATOM     24  CE1 TYR A   1      -8.782 -27.773  19.935  0.00  0.00    +0.036 A 
ATOM     25  CD1 TYR A   1      -7.971 -26.777  20.470  0.00  0.00    -0.001 A 
BRANCH  23  26
ATOM     26  OH  TYR A   1     -10.678 -29.183  20.087  0.00  0.00    -0.506 OA
ATOM     27  HH  TYR A   1     -11.028 -28.882  19.211  0.00  0.00    +0.292 HD
ENDBRANCH  23  26
ENDBRANCH  19  20
ENDBRANCH  16  19
ENDBRANCH  12  16
ENDBRANCH  11  13
BRANCH  11  28
ATOM     28  CB  ASN A   2      -6.730 -28.764  26.936  0.00  0.00    +0.114 C 
BRANCH  28  29
ATOM     29  CG  ASN A   2      -6.047 -30.022  27.466  0.00  0.00    +0.222 C 
ATOM     30  ND2 ASN A   2      -5.977 -30.142  28.788  0.00  0.00    -0.329 N 
ATOM     31 HD21 ASN A   2      -6.374 -29.400  29.399  0.00  0.00    +0.145 HD
ATOM     32 HD22 ASN A   2      -5.526 -30.978  29.211  0.00  0.00    +0.145 HD
ATOM     33  OD1 ASN A   2      -5.593 -30.872  26.698  0.00  0.00    -0.275 OA
ENDBRANCH  28  29
ENDBRANCH  11  28
ENDBRANCH   7  11
ENDBRANCH   6   9
BRANCH   6  34
ATOM     34  CB  TRP A   3      -7.898 -31.069  21.340  0.00  0.00    +0.057 C 
BRANCH  34  35
ATOM     35  CG  TRP A   3      -6.469 -31.088  20.852  0.00  0.00    -0.002 A 
ATOM     36  CD1 TRP A   3      -5.680 -30.003  20.586  0.00  0.00    +0.068 A 
ATOM     37  NE1 TRP A   3      -4.443 -30.413  20.147  0.00  0.00    -0.352 N 
ATOM     38  CE2 TRP A   3      -4.408 -31.787  20.118  0.00  0.00    +0.056 A 
ATOM     39  CZ2 TRP A   3      -3.370 -32.660  19.743  0.00  0.00    +0.017 A 
ATOM     40  CH2 TRP A   3      -3.620 -34.012  19.816  0.00  0.00    +0.001 A 
ATOM     41  CZ3 TRP A   3      -4.867 -34.506  20.247  0.00  0.00    +0.000 A 
ATOM     42  CE3 TRP A   3      -5.896 -33.634  20.621  0.00  0.00    +0.001 A 
ATOM     43  HE1 TRP A   3      -3.659 -29.784  19.880  0.00  0.00    +0.166 HD
ATOM     44  CD2 TRP A   3      -5.668 -32.248  20.557  0.00  0.00    +0.013 A 
ENDBRANCH  34  35
ENDBRANCH   6  34
ENDBRANCH   2   6
ENDBRANCH   1   3
BRANCH   1  45
ATOM     45  C   ARG A   4      -6.934 -34.658  25.478  0.00  0.00    +0.241 C 
ATOM     46  N   GLU A   5      -7.452 -33.763  26.306  0.00  0.00    -0.297 N 
ATOM     47  H   GLU A   5      -7.357 -32.746  26.111  0.00  0.00    +0.150 HD
ATOM     48  O   ARG A   4      -7.079 -35.867  25.639  0.00  0.00    -0.273 OA
BRANCH  46  49
ATOM     49  CA  GLU A   5      -8.153 -34.225  27.488  0.00  0.00    +0.149 C 
BRANCH  49  50
ATOM     50  C   GLU A   5      -9.603 -33.801  27.733  0.00  0.00    +0.241 C 
ATOM     51  N   ASN A   6      -9.844 -32.517  27.989  0.00  0.00    -0.297 N 
ATOM     52  H   ASN A   6      -9.068 -31.826  27.958  0.00  0.00    +0.150 HD
ATOM     53  O   GLU A   5     -10.502 -34.638  27.691  0.00  0.00    -0.273 OA
BRANCH  51  54
ATOM     54  CA  ASN A   6     -11.199 -32.080  28.313  0.00  0.00    +0.158 C 
BRANCH  54  55
ATOM     55  C   ASN A   6     -11.765 -30.878  27.539  0.00  0.00    +0.241 C 
ATOM     56  O   ASN A   6     -12.792 -30.321  27.932  0.00  0.00    -0.273 OA
ATOM     57  N   LEU A   7     -11.102 -30.483  26.457  0.00  0.00    -0.297 N 
ATOM     58  H   LEU A   7     -10.241 -30.996  26.178  0.00  0.00    +0.150 HD
BRANCH  57  59
ATOM     59  CA  LEU A   7     -11.546 -29.348  25.645  0.00  0.00    +0.149 C 
BRANCH  59  60
ATOM     60  C   LEU A   7     -11.478 -28.019  26.407  0.00  0.00    +0.241 C 
ATOM     61  N   ASP A   8     -10.575 -27.939  27.378  0.00  0.00    -0.298 N 
ATOM     62  H   ASP A   8      -9.981 -28.768  27.581  0.00  0.00    +0.150 HD
ATOM     63  O   LEU A   7     -12.238 -27.089  26.122  0.00  0.00    -0.273 OA
BRANCH  61  64
ATOM     64  CA  ASP A   8     -10.388 -26.724  28.172  0.00  0.00    +0.148 C 
BRANCH  64  65
ATOM     65  C   ASP A   8     -10.029 -25.598  27.192  0.00  0.00    +0.227 C 
ATOM     66  O   ASP A   8      -9.205 -25.793  26.301  0.00  0.00    -0.286 OA
ENDBRANCH  64  65
BRANCH  64  67
ATOM     67  CB  ASP A   8      -9.253 -26.947  29.178  0.00  0.00    +0.142 C 
BRANCH  67  68
ATOM     68  CG  ASP A   8      -9.086 -25.789  30.148  0.00  0.00    +0.367 C 
ATOM     69  OD2 ASP A   8     -10.097 -25.165  30.537  0.00  0.00    -0.246 OA
ATOM     70  OD1 ASP A   8      -7.933 -25.503  30.513  0.00  0.00    -0.246 OA
ENDBRANCH  67  68
ENDBRANCH  64  67
ENDBRANCH  61  64
ENDBRANCH  59  60
BRANCH  59  71
ATOM     71  CB  LEU A   7     -12.980 -29.568  25.142  0.00  0.00    +0.029 C 
BRANCH  71  72
ATOM     72  CG  LEU A   7     -13.214 -30.533  23.978  0.00  0.00    +0.002 C 
ATOM     73  CD2 LEU A   7     -14.475 -30.106  23.211  0.00  0.00    +0.000 C 
ATOM     74  CD1 LEU A   7     -12.008 -30.571  23.067  0.00  0.00    +0.000 C 
ENDBRANCH  71  72
ENDBRANCH  59  71
ENDBRANCH  57  59
ENDBRANCH  54  55
BRANCH  54  75
ATOM     75  CB  ASN A   6     -11.253 -31.774  29.811  0.00  0.00    +0.114 C 
BRANCH  75  76
ATOM     76  CG  ASN A   6     -10.203 -30.767  30.224  0.00  0.00    +0.222 C 
ATOM     77  ND2 ASN A   6     -10.160 -30.447  31.511  0.00  0.00    -0.329 N 
ATOM     78 HD21 ASN A   6     -10.827 -30.884  32.178  0.00  0.00    +0.145 HD
ATOM     79 HD22 ASN A   6      -9.459 -29.759  31.853  0.00  0.00    +0.145 HD
ATOM     80  OD1 ASN A   6      -9.434 -30.278  29.387  0.00  0.00    -0.275 OA
ENDBRANCH  75  76
ENDBRANCH  54  75
ENDBRANCH  51  54
ENDBRANCH  49  50
BRANCH  49  81
ATOM     81  CB  GLU A   5      -7.315 -33.884  28.727  0.00  0.00    +0.041 C 
BRANCH  81  82
ATOM     82  CG  GLU A   5      -7.861 -34.453  30.024  0.00  0.00    +0.116 C 
BRANCH  82  83
ATOM     83  CD  GLU A   5      -7.551 -33.568  31.221  0.00  0.00    +0.365 C 
ATOM     84  OE2 GLU A   5      -8.211 -33.729  32.274  0.00  0.00    -0.246 OA
ATOM     85  OE1 GLU A   5      -6.649 -32.707  31.104  0.00  0.00    -0.246 OA
ENDBRANCH  82  83
ENDBRANCH  81  82
ENDBRANCH  49  81
ENDBRANCH  46  49
ENDBRANCH   1  45
BRANCH   1  86
ATOM     86  CB  ARG A   4      -4.674 -34.176  24.644  0.00  0.00    +0.033 C 
BRANCH  86  87
ATOM     87  CG  ARG A   4      -3.772 -33.505  23.648  0.00  0.00    +0.045 C 
BRANCH  87  88
ATOM     88  CD  ARG A   4      -2.330 -33.692  24.052  0.00  0.00    +0.174 C 
BRANCH  88  89
ATOM     89  NE  ARG A   4      -1.712 -34.739  23.258  0.00  0.00    -0.265 N 
ATOM     90  HE  ARG A   4      -1.915 -35.728  23.507  0.00  0.00    +0.259 HD
ATOM     91  CZ  ARG A   4      -0.904 -34.505  22.235  0.00  0.00    +0.342 C 
ATOM     92  NH2 ARG A   4      -0.618 -33.255  21.887  0.00  0.00    -0.292 N 
ATOM     93 HH21 ARG A   4      -1.029 -32.461  22.418  0.00  0.00    +0.255 HD
ATOM     94 HH22 ARG A   4       0.016 -33.071  21.084  0.00  0.00    +0.255 HD
ATOM     95  NH1 ARG A   4      -0.400 -35.516  21.546  0.00  0.00    -0.292 N 
ATOM     96 HH11 ARG A   4      -0.638 -36.494  21.808  0.00  0.00    +0.255 HD
ATOM     97 HH12 ARG A   4       0.235 -35.333  20.743  0.00  0.00    +0.255 HD
ENDBRANCH  88  89
ENDBRANCH  87  88
ENDBRANCH  86  87
ENDBRANCH   1  86
TORSDOF 36
REMARK  Name = ../refined-set-2016/1d3d/1d3d_pocket.pdb
REMARK  228 active torsions:
REMARK  status: ('A' for Active; 'I' for Inactive)
REMARK    1  A    between atoms: _1  and  _5
REMARK    2  A    between atoms: _5  and  _6
REMARK    3  A    between atoms: _5  and  _8
REMARK    4  A    between atoms: _8  and  _9
REMARK    5  A    between atoms: _12  and  _14
REMARK    6  A    between atoms: _14  and  _15
REMARK    7  A    between atoms: _14  and  _17
REMARK    8  A    between atoms: _20  and  _22
REMARK    9  A    between atoms: _22  and  _23
REMARK   10  A    between atoms: _22  and  _25
REMARK   11  A    between atoms: _25  and  _26
REMARK   12  A    between atoms: _29  and  _31
REMARK   13  A    between atoms: _31  and  _32
REMARK   14  A    between atoms: _31  and  _34
REMARK   15  A    between atoms: _34  and  _35
REMARK   16  A    between atoms: _35  and  _65
REMARK   17  A    between atoms: _36  and  _38
REMARK   18  A    between atoms: _38  and  _39
REMARK   19  A    between atoms: _42  and  _44
REMARK   20  A    between atoms: _44  and  _45
REMARK   21  A    between atoms: _48  and  _50
REMARK   22  A    between atoms: _50  and  _51
REMARK   23  A    between atoms: _50  and  _53
REMARK   24  A    between atoms: _53  and  _54
REMARK   25  A    between atoms: _59  and  _61
REMARK   26  A    between atoms: _61  and  _62
REMARK   27  A    between atoms: _61  and  _64
REMARK   28  A    between atoms: _64  and  _65
REMARK   29  A    between atoms: _66  and  _68
REMARK   30  A    between atoms: _68  and  _69
REMARK   31  A    between atoms: _68  and  _71
REMARK   32  A    between atoms: _71  and  _72
REMARK   33  A    between atoms: _75  and  _77
REMARK   34  A    between atoms: _77  and  _78
REMARK   35  A    between atoms: _77  and  _80
REMARK   36  A    between atoms: _80  and  _81
REMARK   37  A    between atoms: _86  and  _87
REMARK   38  A    between atoms: _90  and  _91
REMARK   39  A    between atoms: _97  and  _98
REMARK   40  A    between atoms: _103  and  _105
REMARK   41  A    between atoms: _105  and  _106
REMARK   42  A    between atoms: _105  and  _108
REMARK   43  A    between atoms: _108  and  _109
REMARK   44  A    between atoms: _119  and  _121
REMARK   45  A    between atoms: _121  and  _122
REMARK   46  A    between atoms: _121  and  _124
REMARK   47  A    between atoms: _124  and  _125
REMARK   48  A    between atoms: _128  and  _130
REMARK   49  A    between atoms: _130  and  _131
REMARK   50  A    between atoms: _130  and  _133
REMARK   51  A    between atoms: _133  and  _134
REMARK   52  A    between atoms: _134  and  _135
REMARK   53  A    between atoms: _135  and  _136
REMARK   54  A    between atoms: _136  and  _137
REMARK   55  A    between atoms: _141  and  _143
REMARK   56  A    between atoms: _143  and  _144
REMARK   57  A    between atoms: _143  and  _146
REMARK   58  A    between atoms: _146  and  _147
REMARK   59  A    between atoms: _152  and  _153
REMARK   60  A    between atoms: _155  and  _157
REMARK   61  A    between atoms: _157  and  _158
REMARK   62  A    between atoms: _157  and  _160
REMARK   63  A    between atoms: _160  and  _161
REMARK   64  A    between atoms: _166  and  _168
REMARK   65  A    between atoms: _168  and  _169
REMARK   66  A    between atoms: _168  and  _171
REMARK   67  A    between atoms: _171  and  _172
REMARK   68  A    between atoms: _182  and  _184
REMARK   69  A    between atoms: _184  and  _185
REMARK   70  A    between atoms: _184  and  _187
REMARK   71  A    between atoms: _187  and  _188
REMARK   72  A    between atoms: _188  and  _189
REMARK   73  A    between atoms: _189  and  _190
REMARK   74  A    between atoms: _199  and  _201
REMARK   75  A    between atoms: _201  and  _202
REMARK   76  A    between atoms: _201  and  _204
REMARK   77  A    between atoms: _204  and  _205
REMARK   78  A    between atoms: _205  and  _206
REMARK   79  A    between atoms: _209  and  _211
REMARK   80  A    between atoms: _211  and  _212
REMARK   81  A    between atoms: _211  and  _214
REMARK   82  A    between atoms: _214  and  _215
REMARK   83  A    between atoms: _220  and  _222
REMARK   84  A    between atoms: _222  and  _223
REMARK   85  A    between atoms: _222  and  _225
REMARK   86  A    between atoms: _225  and  _226
REMARK   87  A    between atoms: _229  and  _231
REMARK   88  A    between atoms: _231  and  _232
REMARK   89  A    between atoms: _231  and  _234
REMARK   90  A    between atoms: _234  and  _235
REMARK   91  A    between atoms: _238  and  _240
REMARK   92  A    between atoms: _240  and  _241
REMARK   93  A    between atoms: _240  and  _243
REMARK   94  A    between atoms: _243  and  _244
REMARK   95  A    between atoms: _247  and  _249
REMARK   96  A    between atoms: _249  and  _250
REMARK   97  A    between atoms: _249  and  _252
REMARK   98  A    between atoms: _255  and  _257
REMARK   99  A    between atoms: _257  and  _258
REMARK  100  A    between atoms: _257  and  _260
REMARK  101  A    between atoms: _260  and  _261
REMARK  102  A    between atoms: _266  and  _268
REMARK  103  A    between atoms: _268  and  _269
REMARK  104  A    between atoms: _268  and  _271
REMARK  105  A    between atoms: _271  and  _272
REMARK  106  A    between atoms: _272  and  _273
REMARK  107  A    between atoms: _276  and  _278
REMARK  108  A    between atoms: _278  and  _279
REMARK  109  A    between atoms: _278  and  _281
REMARK  110  A    between atoms: _281  and  _282
REMARK  111  A    between atoms: _285  and  _287
REMARK  112  A    between atoms: _287  and  _288
REMARK  113  A    between atoms: _287  and  _290
REMARK  114  A    between atoms: _290  and  _291
REMARK  115  A    between atoms: _294  and  _296
REMARK  116  A    between atoms: _296  and  _297
REMARK  117  A    between atoms: _296  and  _299
REMARK  118  A    between atoms: _299  and  _300
REMARK  119  A    between atoms: _303  and  _305
REMARK  120  A    between atoms: _305  and  _306
REMARK  121  A    between atoms: _305  and  _308
REMARK  122  A    between atoms: _308  and  _309
REMARK  123  A    between atoms: _309  and  _310
REMARK  124  A    between atoms: _310  and  _311
REMARK  125  A    between atoms: _320  and  _322
REMARK  126  A    between atoms: _322  and  _323
REMARK  127  A    between atoms: _322  and  _325
REMARK  128  A    between atoms: _325  and  _326
REMARK  129  A    between atoms: _326  and  _327
REMARK  130  A    between atoms: _329  and  _331
REMARK  131  A    between atoms: _331  and  _332
REMARK  132  A    between atoms: _335  and  _337
REMARK  133  A    between atoms: _337  and  _338
REMARK  134  A    between atoms: _340  and  _342
REMARK  135  A    between atoms: _342  and  _343
REMARK  136  A    between atoms: _342  and  _345
REMARK  137  A    between atoms: _345  and  _346
REMARK  138  A    between atoms: _349  and  _351
REMARK  139  A    between atoms: _351  and  _352
REMARK  140  A    between atoms: _355  and  _357
REMARK  141  A    between atoms: _357  and  _358
REMARK  142  A    between atoms: _357  and  _360
REMARK  143  A    between atoms: _360  and  _361
REMARK  144  A    between atoms: _361  and  _471
REMARK  145  A    between atoms: _362  and  _364
REMARK  146  A    between atoms: _364  and  _365
REMARK  147  A    between atoms: _364  and  _367
REMARK  148  A    between atoms: _367  and  _368
REMARK  149  A    between atoms: _368  and  _369
REMARK  150  A    between atoms: _372  and  _374
REMARK  151  A    between atoms: _374  and  _375
REMARK  152  A    between atoms: _377  and  _379
REMARK  153  A    between atoms: _379  and  _380
REMARK  154  A    between atoms: _379  and  _382
REMARK  155  A    between atoms: _382  and  _383
REMARK  156  A    between atoms: _386  and  _388
REMARK  157  A    between atoms: _388  and  _389
REMARK  158  A    between atoms: _388  and  _391
REMARK  159  A    between atoms: _391  and  _392
REMARK  160  A    between atoms: _394  and  _396
REMARK  161  A    between atoms: _396  and  _397
REMARK  162  A    between atoms: _399  and  _401
REMARK  163  A    between atoms: _401  and  _402
REMARK  164  A    between atoms: _404  and  _406
REMARK  165  A    between atoms: _406  and  _407
REMARK  166  A    between atoms: _406  and  _409
REMARK  167  A    between atoms: _409  and  _410
REMARK  168  A    between atoms: _413  and  _415
REMARK  169  A    between atoms: _415  and  _416
REMARK  170  A    between atoms: _415  and  _418
REMARK  171  A    between atoms: _421  and  _423
REMARK  172  A    between atoms: _423  and  _424
REMARK  173  A    between atoms: _423  and  _426
REMARK  174  A    between atoms: _426  and  _427
REMARK  175  A    between atoms: _429  and  _431
REMARK  176  A    between atoms: _431  and  _432
REMARK  177  A    between atoms: _431  and  _434
REMARK  178  A    between atoms: _434  and  _435
REMARK  179  A    between atoms: _445  and  _447
REMARK  180  A    between atoms: _447  and  _448
REMARK  181  A    between atoms: _450  and  _452
REMARK  182  A    between atoms: _452  and  _453
REMARK  183  A    between atoms: _452  and  _455
REMARK  184  A    between atoms: _455  and  _456
REMARK  185  A    between atoms: _456  and  _457
REMARK  186  A    between atoms: _460  and  _462
REMARK  187  A    between atoms: _462  and  _463
REMARK  188  A    between atoms: _465  and  _467
REMARK  189  A    between atoms: _467  and  _468
REMARK  190  A    between atoms: _467  and  _470
REMARK  191  A    between atoms: _470  and  _471
REMARK  192  A    between atoms: _472  and  _474
REMARK  193  A    between atoms: _474  and  _475
REMARK  194  A    between atoms: _474  and  _477
REMARK  195  A    between atoms: _477  and  _478
REMARK  196  A    between atoms: _481  and  _483
REMARK  197  A    between atoms: _483  and  _484
REMARK  198  A    between atoms: _483  and  _486
REMARK  199  A    between atoms: _486  and  _487
REMARK  200  A    between atoms: _487  and  _488
REMARK  201  A    between atoms: _488  and  _489
REMARK  202  A    between atoms: _498  and  _500
REMARK  203  A    between atoms: _500  and  _501
REMARK  204  A    between atoms: _500  and  _503
REMARK  205  A    between atoms: _503  and  _504
REMARK  206  A    between atoms: _504  and  _505
REMARK  207  A    between atoms: _505  and  _506
REMARK  208  A    between atoms: _506  and  _507
REMARK  209  A    between atoms: _511  and  _513
REMARK  210  A    between atoms: _513  and  _514
REMARK  211  A    between atoms: _513  and  _516
REMARK  212  A    between atoms: _516  and  _517
REMARK  213  A    between atoms: _522  and  _523
REMARK  214  A    between atoms: _525  and  _527
REMARK  215  A    between atoms: _527  and  _528
REMARK  216  A    between atoms: _530  and  _532
REMARK  217  A    between atoms: _532  and  _533
REMARK  218  A    between atoms: _532  and  _535
REMARK  219  A    between atoms: _535  and  _536
REMARK  220  A    between atoms: _542  and  _544
REMARK  221  A    between atoms: _544  and  _545
REMARK  222  A    between atoms: _544  and  _547
REMARK  223  A    between atoms: _547  and  _548
REMARK  224  A    between atoms: _553  and  _554
REMARK  225  A    between atoms: _556  and  _558
REMARK  226  A    between atoms: _558  and  _559
REMARK  227  A    between atoms: _558  and  _561
REMARK  228  A    between atoms: _561  and  _562
REMARK                            x       y       z     vdW  Elec       q    Type
REMARK                         _______ _______ _______ _____ _____    ______ ____
ROOT
ATOM      1  CA  ASP A   1     -12.532 -24.564  23.562  0.00  0.00    +0.144 C 
ENDROOT
BRANCH   1   2
ATOM      2  N   ASP A   1     -11.995 -24.186  24.865  0.00  0.00    -0.239 NA
ATOM      3  H   ASP A   1     -12.573 -24.371  25.710  0.00  0.00    +0.142 HD
ENDBRANCH   1   2
BRANCH   1   4
ATOM      4  C   ASP A   1     -13.074 -23.279  22.901  0.00  0.00    +0.225 C 
ATOM      5  O   ASP A   1     -14.266 -22.969  23.000  0.00  0.00    -0.287 OA
ENDBRANCH   1   4
BRANCH   1   6
ATOM      6  CB  ASP A   1     -13.652 -25.581  23.786  0.00  0.00    +0.139 C 
BRANCH   6   7
ATOM      7  CG  ASP A   1     -14.208 -26.150  22.490  0.00  0.00    +0.367 C 
ATOM      8  OD2 ASP A   1     -15.293 -26.761  22.542  0.00  0.00    -0.246 OA
ATOM      9  OD1 ASP A   1     -13.572 -25.981  21.436  0.00  0.00    -0.246 OA
ENDBRANCH   6   7
ENDBRANCH   1   6
TORSDOF 4
REMARK  Name = ../refined-set-2016/1d3d/1d3d_pocket.pdb
REMARK  228 active torsions:
REMARK  status: ('A' for Active; 'I' for Inactive)
REMARK    1  A    between atoms: _1  and  _5
REMARK    2  A    between atoms: _5  and  _6
REMARK    3  A    between atoms: _5  and  _8
REMARK    4  A    between atoms: _8  and  _9
REMARK    5  A    between atoms: _12  and  _14
REMARK    6  A    between atoms: _14  and  _15
REMARK    7  A    between atoms: _14  and  _17
REMARK    8  A    between atoms: _20  and  _22
REMARK    9  A    between atoms: _22  and  _23
REMARK   10  A    between atoms: _22  and  _25
REMARK   11  A    between atoms: _25  and  _26
REMARK   12  A    between atoms: _29  and  _31
REMARK   13  A    between atoms: _31  and  _32
REMARK   14  A    between atoms: _31  and  _34
REMARK   15  A    between atoms: _34  and  _35
REMARK   16  A    between atoms: _35  and  _65
REMARK   17  A    between atoms: _36  and  _38
REMARK   18  A    between atoms: _38  and  _39
REMARK   19  A    between atoms: _42  and  _44
REMARK   20  A    between atoms: _44  and  _45
REMARK   21  A    between atoms: _48  and  _50
REMARK   22  A    between atoms: _50  and  _51
REMARK   23  A    between atoms: _50  and  _53
REMARK   24  A    between atoms: _53  and  _54
REMARK   25  A    between atoms: _59  and  _61
REMARK   26  A    between atoms: _61  and  _62
REMARK   27  A    between atoms: _61  and  _64
REMARK   28  A    between atoms: _64  and  _65
REMARK   29  A    between atoms: _66  and  _68
REMARK   30  A    between atoms: _68  and  _69
REMARK   31  A    between atoms: _68  and  _71
REMARK   32  A    between atoms: _71  and  _72
REMARK   33  A    between atoms: _75  and  _77
REMARK   34  A    between atoms: _77  and  _78
REMARK   35  A    between atoms: _77  and  _80
REMARK   36  A    between atoms: _80  and  _81
REMARK   37  A    between atoms: _86  and  _87
REMARK   38  A    between atoms: _90  and  _91
REMARK   39  A    between atoms: _97  and  _98
REMARK   40  A    between atoms: _103  and  _105
REMARK   41  A    between atoms: _105  and  _106
REMARK   42  A    between atoms: _105  and  _108
REMARK   43  A    between atoms: _108  and  _109
REMARK   44  A    between atoms: _119  and  _121
REMARK   45  A    between atoms: _121  and  _122
REMARK   46  A    between atoms: _121  and  _124
REMARK   47  A    between atoms: _124  and  _125
REMARK   48  A    between atoms: _128  and  _130
REMARK   49  A    between atoms: _130  and  _131
REMARK   50  A    between atoms: _130  and  _133
REMARK   51  A    between atoms: _133  and  _134
REMARK   52  A    between atoms: _134  and  _135
REMARK   53  A    between atoms: _135  and  _136
REMARK   54  A    between atoms: _136  and  _137
REMARK   55  A    between atoms: _141  and  _143
REMARK   56  A    between atoms: _143  and  _144
REMARK   57  A    between atoms: _143  and  _146
REMARK   58  A    between atoms: _146  and  _147
REMARK   59  A    between atoms: _152  and  _153
REMARK   60  A    between atoms: _155  and  _157
REMARK   61  A    between atoms: _157  and  _158
REMARK   62  A    between atoms: _157  and  _160
REMARK   63  A    between atoms: _160  and  _161
REMARK   64  A    between atoms: _166  and  _168
REMARK   65  A    between atoms: _168  and  _169
REMARK   66  A    between atoms: _168  and  _171
REMARK   67  A    between atoms: _171  and  _172
REMARK   68  A    between atoms: _182  and  _184
REMARK   69  A    between atoms: _184  and  _185
REMARK   70  A    between atoms: _184  and  _187
REMARK   71  A    between atoms: _187  and  _188
REMARK   72  A    between atoms: _188  and  _189
REMARK   73  A    between atoms: _189  and  _190
REMARK   74  A    between atoms: _199  and  _201
REMARK   75  A    between atoms: _201  and  _202
REMARK   76  A    between atoms: _201  and  _204
REMARK   77  A    between atoms: _204  and  _205
REMARK   78  A    between atoms: _205  and  _206
REMARK   79  A    between atoms: _209  and  _211
REMARK   80  A    between atoms: _211  and  _212
REMARK   81  A    between atoms: _211  and  _214
REMARK   82  A    between atoms: _214  and  _215
REMARK   83  A    between atoms: _220  and  _222
REMARK   84  A    between atoms: _222  and  _223
REMARK   85  A    between atoms: _222  and  _225
REMARK   86  A    between atoms: _225  and  _226
REMARK   87  A    between atoms: _229  and  _231
REMARK   88  A    between atoms: _231  and  _232
REMARK   89  A    between atoms: _231  and  _234
REMARK   90  A    between atoms: _234  and  _235
REMARK   91  A    between atoms: _238  and  _240
REMARK   92  A    between atoms: _240  and  _241
REMARK   93  A    between atoms: _240  and  _243
REMARK   94  A    between atoms: _243  and  _244
REMARK   95  A    between atoms: _247  and  _249
REMARK   96  A    between atoms: _249  and  _250
REMARK   97  A    between atoms: _249  and  _252
REMARK   98  A    between atoms: _255  and  _257
REMARK   99  A    between atoms: _257  and  _258
REMARK  100  A    between atoms: _257  and  _260
REMARK  101  A    between atoms: _260  and  _261
REMARK  102  A    between atoms: _266  and  _268
REMARK  103  A    between atoms: _268  and  _269
REMARK  104  A    between atoms: _268  and  _271
REMARK  105  A    between atoms: _271  and  _272
REMARK  106  A    between atoms: _272  and  _273
REMARK  107  A    between atoms: _276  and  _278
REMARK  108  A    between atoms: _278  and  _279
REMARK  109  A    between atoms: _278  and  _281
REMARK  110  A    between atoms: _281  and  _282
REMARK  111  A    between atoms: _285  and  _287
REMARK  112  A    between atoms: _287  and  _288
REMARK  113  A    between atoms: _287  and  _290
REMARK  114  A    between atoms: _290  and  _291
REMARK  115  A    between atoms: _294  and  _296
REMARK  116  A    between atoms: _296  and  _297
REMARK  117  A    between atoms: _296  and  _299
REMARK  118  A    between atoms: _299  and  _300
REMARK  119  A    between atoms: _303  and  _305
REMARK  120  A    between atoms: _305  and  _306
REMARK  121  A    between atoms: _305  and  _308
REMARK  122  A    between atoms: _308  and  _309
REMARK  123  A    between atoms: _309  and  _310
REMARK  124  A    between atoms: _310  and  _311
REMARK  125  A    between atoms: _320  and  _322
REMARK  126  A    between atoms: _322  and  _323
REMARK  127  A    between atoms: _322  and  _325
REMARK  128  A    between atoms: _325  and  _326
REMARK  129  A    between atoms: _326  and  _327
REMARK  130  A    between atoms: _329  and  _331
REMARK  131  A    between atoms: _331  and  _332
REMARK  132  A    between atoms: _335  and  _337
REMARK  133  A    between atoms: _337  and  _338
REMARK  134  A    between atoms: _340  and  _342
REMARK  135  A    between atoms: _342  and  _343
REMARK  136  A    between atoms: _342  and  _345
REMARK  137  A    between atoms: _345  and  _346
REMARK  138  A    between atoms: _349  and  _351
REMARK  139  A    between atoms: _351  and  _352
REMARK  140  A    between atoms: _355  and  _357
REMARK  141  A    between atoms: _357  and  _358
REMARK  142  A    between atoms: _357  and  _360
REMARK  143  A    between atoms: _360  and  _361
REMARK  144  A    between atoms: _361  and  _471
REMARK  145  A    between atoms: _362  and  _364
REMARK  146  A    between atoms: _364  and  _365
REMARK  147  A    between atoms: _364  and  _367
REMARK  148  A    between atoms: _367  and  _368
REMARK  149  A    between atoms: _368  and  _369
REMARK  150  A    between atoms: _372  and  _374
REMARK  151  A    between atoms: _374  and  _375
REMARK  152  A    between atoms: _377  and  _379
REMARK  153  A    between atoms: _379  and  _380
REMARK  154  A    between atoms: _379  and  _382
REMARK  155  A    between atoms: _382  and  _383
REMARK  156  A    between atoms: _386  and  _388
REMARK  157  A    between atoms: _388  and  _389
REMARK  158  A    between atoms: _388  and  _391
REMARK  159  A    between atoms: _391  and  _392
REMARK  160  A    between atoms: _394  and  _396
REMARK  161  A    between atoms: _396  and  _397
REMARK  162  A    between atoms: _399  and  _401
REMARK  163  A    between atoms: _401  and  _402
REMARK  164  A    between atoms: _404  and  _406
REMARK  165  A    between atoms: _406  and  _407
REMARK  166  A    between atoms: _406  and  _409
REMARK  167  A    between atoms: _409  and  _410
REMARK  168  A    between atoms: _413  and  _415
REMARK  169  A    between atoms: _415  and  _416
REMARK  170  A    between atoms: _415  and  _418
REMARK  171  A    between atoms: _421  and  _423
REMARK  172  A    between atoms: _423  and  _424
REMARK  173  A    between atoms: _423  and  _426
REMARK  174  A    between atoms: _426  and  _427
REMARK  175  A    between atoms: _429  and  _431
REMARK  176  A    between atoms: _431  and  _432
REMARK  177  A    between atoms: _431  and  _434
REMARK  178  A    between atoms: _434  and  _435
REMARK  179  A    between atoms: _445  and  _447
REMARK  180  A    between atoms: _447  and  _448
REMARK  181  A    between atoms: _450  and  _452
REMARK  182  A    between atoms: _452  and  _453
REMARK  183  A    between atoms: _452  and  _455
REMARK  184  A    between atoms: _455  and  _456
REMARK  185  A    between atoms: _456  and  _457
REMARK  186  A    between atoms: _460  and  _462
REMARK  187  A    between atoms: _462  and  _463
REMARK  188  A    between atoms: _465  and  _467
REMARK  189  A    between atoms: _467  and  _468
REMARK  190  A    between atoms: _467  and  _470
REMARK  191  A    between atoms: _470  and  _471
REMARK  192  A    between atoms: _472  and  _474
REMARK  193  A    between atoms: _474  and  _475
REMARK  194  A    between atoms: _474  and  _477
REMARK  195  A    between atoms: _477  and  _478
REMARK  196  A    between atoms: _481  and  _483
REMARK  197  A    between atoms: _483  and  _484
REMARK  198  A    between atoms: _483  and  _486
REMARK  199  A    between atoms: _486  and  _487
REMARK  200  A    between atoms: _487  and  _488
REMARK  201  A    between atoms: _488  and  _489
REMARK  202  A    between atoms: _498  and  _500
REMARK  203  A    between atoms: _500  and  _501
REMARK  204  A    between atoms: _500  and  _503
REMARK  205  A    between atoms: _503  and  _504
REMARK  206  A    between atoms: _504  and  _505
REMARK  207  A    between atoms: _505  and  _506
REMARK  208  A    between atoms: _506  and  _507
REMARK  209  A    between atoms: _511  and  _513
REMARK  210  A    between atoms: _513  and  _514
REMARK  211  A    between atoms: _513  and  _516
REMARK  212  A    between atoms: _516  and  _517
REMARK  213  A    between atoms: _522  and  _523
REMARK  214  A    between atoms: _525  and  _527
REMARK  215  A    between atoms: _527  and  _528
REMARK  216  A    between atoms: _530  and  _532
REMARK  217  A    between atoms: _532  and  _533
REMARK  218  A    between atoms: _532  and  _535
REMARK  219  A    between atoms: _535  and  _536
REMARK  220  A    between atoms: _542  and  _544
REMARK  221  A    between atoms: _544  and  _545
REMARK  222  A    between atoms: _544  and  _547
REMARK  223  A    between atoms: _547  and  _548
REMARK  224  A    between atoms: _553  and  _554
REMARK  225  A    between atoms: _556  and  _558
REMARK  226  A    between atoms: _558  and  _559
REMARK  227  A    between atoms: _558  and  _561
REMARK  228  A    between atoms: _561  and  _562
REMARK                            x       y       z     vdW  Elec       q    Type
REMARK                         _______ _______ _______ _____ _____    ______ ____
ROOT
ATOM      1  CA  VAL A   1     -29.198 -22.000  22.900  0.00  0.00    +0.133 C 
ENDROOT
BRANCH   1   2
ATOM      2  CB  VAL A   1     -28.679 -23.383  23.397  0.00  0.00    +0.023 C 
ATOM      3  CG2 VAL A   1     -28.203 -23.277  24.815  0.00  0.00    +0.002 C 
ATOM      4  CG1 VAL A   1     -27.544 -23.847  22.521  0.00  0.00    +0.002 C 
ENDBRANCH   1   2
BRANCH   1   5
ATOM      5  N   VAL A   1     -30.089 -21.385  23.869  0.00  0.00    -0.239 NA
ATOM      6  H   VAL A   1     -30.998 -21.835  24.099  0.00  0.00    +0.142 HD
ENDBRANCH   1   5
BRANCH   1   7
ATOM      7  C   VAL A   1     -29.940 -22.174  21.571  0.00  0.00    +0.224 C 
ATOM      8  O   VAL A   1     -31.110 -22.544  21.548  0.00  0.00    -0.287 OA
ENDBRANCH   1   7
TORSDOF 3
REMARK  Name = ../refined-set-2016/1d3d/1d3d_pocket.pdb
REMARK  228 active torsions:
REMARK  status: ('A' for Active; 'I' for Inactive)
REMARK    1  A    between atoms: _1  and  _5
REMARK    2  A    between atoms: _5  and  _6
REMARK    3  A    between atoms: _5  and  _8
REMARK    4  A    between atoms: _8  and  _9
REMARK    5  A    between atoms: _12  and  _14
REMARK    6  A    between atoms: _14  and  _15
REMARK    7  A    between atoms: _14  and  _17
REMARK    8  A    between atoms: _20  and  _22
REMARK    9  A    between atoms: _22  and  _23
REMARK   10  A    between atoms: _22  and  _25
REMARK   11  A    between atoms: _25  and  _26
REMARK   12  A    between atoms: _29  and  _31
REMARK   13  A    between atoms: _31  and  _32
REMARK   14  A    between atoms: _31  and  _34
REMARK   15  A    between atoms: _34  and  _35
REMARK   16  A    between atoms: _35  and  _65
REMARK   17  A    between atoms: _36  and  _38
REMARK   18  A    between atoms: _38  and  _39
REMARK   19  A    between atoms: _42  and  _44
REMARK   20  A    between atoms: _44  and  _45
REMARK   21  A    between atoms: _48  and  _50
REMARK   22  A    between atoms: _50  and  _51
REMARK   23  A    between atoms: _50  and  _53
REMARK   24  A    between atoms: _53  and  _54
REMARK   25  A    between atoms: _59  and  _61
REMARK   26  A    between atoms: _61  and  _62
REMARK   27  A    between atoms: _61  and  _64
REMARK   28  A    between atoms: _64  and  _65
REMARK   29  A    between atoms: _66  and  _68
REMARK   30  A    between atoms: _68  and  _69
REMARK   31  A    between atoms: _68  and  _71
REMARK   32  A    between atoms: _71  and  _72
REMARK   33  A    between atoms: _75  and  _77
REMARK   34  A    between atoms: _77  and  _78
REMARK   35  A    between atoms: _77  and  _80
REMARK   36  A    between atoms: _80  and  _81
REMARK   37  A    between atoms: _86  and  _87
REMARK   38  A    between atoms: _90  and  _91
REMARK   39  A    between atoms: _97  and  _98
REMARK   40  A    between atoms: _103  and  _105
REMARK   41  A    between atoms: _105  and  _106
REMARK   42  A    between atoms: _105  and  _108
REMARK   43  A    between atoms: _108  and  _109
REMARK   44  A    between atoms: _119  and  _121
REMARK   45  A    between atoms: _121  and  _122
REMARK   46  A    between atoms: _121  and  _124
REMARK   47  A    between atoms: _124  and  _125
REMARK   48  A    between atoms: _128  and  _130
REMARK   49  A    between atoms: _130  and  _131
REMARK   50  A    between atoms: _130  and  _133
REMARK   51  A    between atoms: _133  and  _134
REMARK   52  A    between atoms: _134  and  _135
REMARK   53  A    between atoms: _135  and  _136
REMARK   54  A    between atoms: _136  and  _137
REMARK   55  A    between atoms: _141  and  _143
REMARK   56  A    between atoms: _143  and  _144
REMARK   57  A    between atoms: _143  and  _146
REMARK   58  A    between atoms: _146  and  _147
REMARK   59  A    between atoms: _152  and  _153
REMARK   60  A    between atoms: _155  and  _157
REMARK   61  A    between atoms: _157  and  _158
REMARK   62  A    between atoms: _157  and  _160
REMARK   63  A    between atoms: _160  and  _161
REMARK   64  A    between atoms: _166  and  _168
REMARK   65  A    between atoms: _168  and  _169
REMARK   66  A    between atoms: _168  and  _171
REMARK   67  A    between atoms: _171  and  _172
REMARK   68  A    between atoms: _182  and  _184
REMARK   69  A    between atoms: _184  and  _185
REMARK   70  A    between atoms: _184  and  _187
REMARK   71  A    between atoms: _187  and  _188
REMARK   72  A    between atoms: _188  and  _189
REMARK   73  A    between atoms: _189  and  _190
REMARK   74  A    between atoms: _199  and  _201
REMARK   75  A    between atoms: _201  and  _202
REMARK   76  A    between atoms: _201  and  _204
REMARK   77  A    between atoms: _204  and  _205
REMARK   78  A    between atoms: _205  and  _206
REMARK   79  A    between atoms: _209  and  _211
REMARK   80  A    between atoms: _211  and  _212
REMARK   81  A    between atoms: _211  and  _214
REMARK   82  A    between atoms: _214  and  _215
REMARK   83  A    between atoms: _220  and  _222
REMARK   84  A    between atoms: _222  and  _223
REMARK   85  A    between atoms: _222  and  _225
REMARK   86  A    between atoms: _225  and  _226
REMARK   87  A    between atoms: _229  and  _231
REMARK   88  A    between atoms: _231  and  _232
REMARK   89  A    between atoms: _231  and  _234
REMARK   90  A    between atoms: _234  and  _235
REMARK   91  A    between atoms: _238  and  _240
REMARK   92  A    between atoms: _240  and  _241
REMARK   93  A    between atoms: _240  and  _243
REMARK   94  A    between atoms: _243  and  _244
REMARK   95  A    between atoms: _247  and  _249
REMARK   96  A    between atoms: _249  and  _250
REMARK   97  A    between atoms: _249  and  _252
REMARK   98  A    between atoms: _255  and  _257
REMARK   99  A    between atoms: _257  and  _258
REMARK  100  A    between atoms: _257  and  _260
REMARK  101  A    between atoms: _260  and  _261
REMARK  102  A    between atoms: _266  and  _268
REMARK  103  A    between atoms: _268  and  _269
REMARK  104  A    between atoms: _268  and  _271
REMARK  105  A    between atoms: _271  and  _272
REMARK  106  A    between atoms: _272  and  _273
REMARK  107  A    between atoms: _276  and  _278
REMARK  108  A    between atoms: _278  and  _279
REMARK  109  A    between atoms: _278  and  _281
REMARK  110  A    between atoms: _281  and  _282
REMARK  111  A    between atoms: _285  and  _287
REMARK  112  A    between atoms: _287  and  _288
REMARK  113  A    between atoms: _287  and  _290
REMARK  114  A    between atoms: _290  and  _291
REMARK  115  A    between atoms: _294  and  _296
REMARK  116  A    between atoms: _296  and  _297
REMARK  117  A    between atoms: _296  and  _299
REMARK  118  A    between atoms: _299  and  _300
REMARK  119  A    between atoms: _303  and  _305
REMARK  120  A    between atoms: _305  and  _306
REMARK  121  A    between atoms: _305  and  _308
REMARK  122  A    between atoms: _308  and  _309
REMARK  123  A    between atoms: _309  and  _310
REMARK  124  A    between atoms: _310  and  _311
REMARK  125  A    between atoms: _320  and  _322
REMARK  126  A    between atoms: _322  and  _323
REMARK  127  A    between atoms: _322  and  _325
REMARK  128  A    between atoms: _325  and  _326
REMARK  129  A    between atoms: _326  and  _327
REMARK  130  A    between atoms: _329  and  _331
REMARK  131  A    between atoms: _331  and  _332
REMARK  132  A    between atoms: _335  and  _337
REMARK  133  A    between atoms: _337  and  _338
REMARK  134  A    between atoms: _340  and  _342
REMARK  135  A    between atoms: _342  and  _343
REMARK  136  A    between atoms: _342  and  _345
REMARK  137  A    between atoms: _345  and  _346
REMARK  138  A    between atoms: _349  and  _351
REMARK  139  A    between atoms: _351  and  _352
REMARK  140  A    between atoms: _355  and  _357
REMARK  141  A    between atoms: _357  and  _358
REMARK  142  A    between atoms: _357  and  _360
REMARK  143  A    between atoms: _360  and  _361
REMARK  144  A    between atoms: _361  and  _471
REMARK  145  A    between atoms: _362  and  _364
REMARK  146  A    between atoms: _364  and  _365
REMARK  147  A    between atoms: _364  and  _367
REMARK  148  A    between atoms: _367  and  _368
REMARK  149  A    between atoms: _368  and  _369
REMARK  150  A    between atoms: _372  and  _374
REMARK  151  A    between atoms: _374  and  _375
REMARK  152  A    between atoms: _377  and  _379
REMARK  153  A    between atoms: _379  and  _380
REMARK  154  A    between atoms: _379  and  _382
REMARK  155  A    between atoms: _382  and  _383
REMARK  156  A    between atoms: _386  and  _388
REMARK  157  A    between atoms: _388  and  _389
REMARK  158  A    between atoms: _388  and  _391
REMARK  159  A    between atoms: _391  and  _392
REMARK  160  A    between atoms: _394  and  _396
REMARK  161  A    between atoms: _396  and  _397
REMARK  162  A    between atoms: _399  and  _401
REMARK  163  A    between atoms: _401  and  _402
REMARK  164  A    between atoms: _404  and  _406
REMARK  165  A    between atoms: _406  and  _407
REMARK  166  A    between atoms: _406  and  _409
REMARK  167  A    between atoms: _409  and  _410
REMARK  168  A    between atoms: _413  and  _415
REMARK  169  A    between atoms: _415  and  _416
REMARK  170  A    between atoms: _415  and  _418
REMARK  171  A    between atoms: _421  and  _423
REMARK  172  A    between atoms: _423  and  _424
REMARK  173  A    between atoms: _423  and  _426
REMARK  174  A    between atoms: _426  and  _427
REMARK  175  A    between atoms: _429  and  _431
REMARK  176  A    between atoms: _431  and  _432
REMARK  177  A    between atoms: _431  and  _434
REMARK  178  A    between atoms: _434  and  _435
REMARK  179  A    between atoms: _445  and  _447
REMARK  180  A    between atoms: _447  and  _448
REMARK  181  A    between atoms: _450  and  _452
REMARK  182  A    between atoms: _452  and  _453
REMARK  183  A    between atoms: _452  and  _455
REMARK  184  A    between atoms: _455  and  _456
REMARK  185  A    between atoms: _456  and  _457
REMARK  186  A    between atoms: _460  and  _462
REMARK  187  A    between atoms: _462  and  _463
REMARK  188  A    between atoms: _465  and  _467
REMARK  189  A    between atoms: _467  and  _468
REMARK  190  A    between atoms: _467  and  _470
REMARK  191  A    between atoms: _470  and  _471
REMARK  192  A    between atoms: _472  and  _474
REMARK  193  A    between atoms: _474  and  _475
REMARK  194  A    between atoms: _474  and  _477
REMARK  195  A    between atoms: _477  and  _478
REMARK  196  A    between atoms: _481  and  _483
REMARK  197  A    between atoms: _483  and  _484
REMARK  198  A    between atoms: _483  and  _486
REMARK  199  A    between atoms: _486  and  _487
REMARK  200  A    between atoms: _487  and  _488
REMARK  201  A    between atoms: _488  and  _489
REMARK  202  A    between atoms: _498  and  _500
REMARK  203  A    between atoms: _500  and  _501
REMARK  204  A    between atoms: _500  and  _503
REMARK  205  A    between atoms: _503  and  _504
REMARK  206  A    between atoms: _504  and  _505
REMARK  207  A    between atoms: _505  and  _506
REMARK  208  A    between atoms: _506  and  _507
REMARK  209  A    between atoms: _511  and  _513
REMARK  210  A    between atoms: _513  and  _514
REMARK  211  A    between atoms: _513  and  _516
REMARK  212  A    between atoms: _516  and  _517
REMARK  213  A    between atoms: _522  and  _523
REMARK  214  A    between atoms: _525  and  _527
REMARK  215  A    between atoms: _527  and  _528
REMARK  216  A    between atoms: _530  and  _532
REMARK  217  A    between atoms: _532  and  _533
REMARK  218  A    between atoms: _532  and  _535
REMARK  219  A    between atoms: _535  and  _536
REMARK  220  A    between atoms: _542  and  _544
REMARK  221  A    between atoms: _544  and  _545
REMARK  222  A    between atoms: _544  and  _547
REMARK  223  A    between atoms: _547  and  _548
REMARK  224  A    between atoms: _553  and  _554
REMARK  225  A    between atoms: _556  and  _558
REMARK  226  A    between atoms: _558  and  _559
REMARK  227  A    between atoms: _558  and  _561
REMARK  228  A    between atoms: _561  and  _562
REMARK                            x       y       z     vdW  Elec       q    Type
REMARK                         _______ _______ _______ _____ _____    ______ ____
ROOT
ATOM      1  CB  ASN A   1     -29.080 -34.209  15.601  0.00  0.00    +0.110 C 
ENDROOT
BRANCH   1   2
ATOM      2  CG  ASN A   1     -28.225 -34.631  14.439  0.00  0.00    +0.221 C 
ATOM      3  ND2 ASN A   1     -27.422 -35.666  14.640  0.00  0.00    -0.329 N 
ATOM      4 HD21 ASN A   1     -27.409 -36.142  15.564  0.00  0.00    +0.145 HD
ATOM      5 HD22 ASN A   1     -26.805 -36.002  13.873  0.00  0.00    +0.145 HD
ATOM      6  OD1 ASN A   1     -28.281 -34.030  13.366  0.00  0.00    -0.275 OA
ENDBRANCH   1   2
BRANCH   1   7
ATOM      7  CA  ASN A   1     -29.860 -32.929  15.309  0.00  0.00    +0.142 C 
BRANCH   7   8
ATOM      8  N   ASN A   1     -28.936 -31.809  15.180  0.00  0.00    -0.239 NA
ATOM      9  H   ASN A   1     -27.914 -31.995  15.232  0.00  0.00    +0.142 HD
ENDBRANCH   7   8
BRANCH   7  10
ATOM     10  C   ASN A   1     -30.925 -32.738  16.371  0.00  0.00    +0.225 C 
ATOM     11  O   ASN A   1     -30.687 -32.108  17.408  0.00  0.00    -0.287 OA
ENDBRANCH   7  10
ENDBRANCH   1   7
TORSDOF 4
REMARK  Name = ../refined-set-2016/1d3d/1d3d_pocket.pdb
REMARK  228 active torsions:
REMARK  status: ('A' for Active; 'I' for Inactive)
REMARK    1  A    between atoms: _1  and  _5
REMARK    2  A    between atoms: _5  and  _6
REMARK    3  A    between atoms: _5  and  _8
REMARK    4  A    between atoms: _8  and  _9
REMARK    5  A    between atoms: _12  and  _14
REMARK    6  A    between atoms: _14  and  _15
REMARK    7  A    between atoms: _14  and  _17
REMARK    8  A    between atoms: _20  and  _22
REMARK    9  A    between atoms: _22  and  _23
REMARK   10  A    between atoms: _22  and  _25
REMARK   11  A    between atoms: _25  and  _26
REMARK   12  A    between atoms: _29  and  _31
REMARK   13  A    between atoms: _31  and  _32
REMARK   14  A    between atoms: _31  and  _34
REMARK   15  A    between atoms: _34  and  _35
REMARK   16  A    between atoms: _35  and  _65
REMARK   17  A    between atoms: _36  and  _38
REMARK   18  A    between atoms: _38  and  _39
REMARK   19  A    between atoms: _42  and  _44
REMARK   20  A    between atoms: _44  and  _45
REMARK   21  A    between atoms: _48  and  _50
REMARK   22  A    between atoms: _50  and  _51
REMARK   23  A    between atoms: _50  and  _53
REMARK   24  A    between atoms: _53  and  _54
REMARK   25  A    between atoms: _59  and  _61
REMARK   26  A    between atoms: _61  and  _62
REMARK   27  A    between atoms: _61  and  _64
REMARK   28  A    between atoms: _64  and  _65
REMARK   29  A    between atoms: _66  and  _68
REMARK   30  A    between atoms: _68  and  _69
REMARK   31  A    between atoms: _68  and  _71
REMARK   32  A    between atoms: _71  and  _72
REMARK   33  A    between atoms: _75  and  _77
REMARK   34  A    between atoms: _77  and  _78
REMARK   35  A    between atoms: _77  and  _80
REMARK   36  A    between atoms: _80  and  _81
REMARK   37  A    between atoms: _86  and  _87
REMARK   38  A    between atoms: _90  and  _91
REMARK   39  A    between atoms: _97  and  _98
REMARK   40  A    between atoms: _103  and  _105
REMARK   41  A    between atoms: _105  and  _106
REMARK   42  A    between atoms: _105  and  _108
REMARK   43  A    between atoms: _108  and  _109
REMARK   44  A    between atoms: _119  and  _121
REMARK   45  A    between atoms: _121  and  _122
REMARK   46  A    between atoms: _121  and  _124
REMARK   47  A    between atoms: _124  and  _125
REMARK   48  A    between atoms: _128  and  _130
REMARK   49  A    between atoms: _130  and  _131
REMARK   50  A    between atoms: _130  and  _133
REMARK   51  A    between atoms: _133  and  _134
REMARK   52  A    between atoms: _134  and  _135
REMARK   53  A    between atoms: _135  and  _136
REMARK   54  A    between atoms: _136  and  _137
REMARK   55  A    between atoms: _141  and  _143
REMARK   56  A    between atoms: _143  and  _144
REMARK   57  A    between atoms: _143  and  _146
REMARK   58  A    between atoms: _146  and  _147
REMARK   59  A    between atoms: _152  and  _153
REMARK   60  A    between atoms: _155  and  _157
REMARK   61  A    between atoms: _157  and  _158
REMARK   62  A    between atoms: _157  and  _160
REMARK   63  A    between atoms: _160  and  _161
REMARK   64  A    between atoms: _166  and  _168
REMARK   65  A    between atoms: _168  and  _169
REMARK   66  A    between atoms: _168  and  _171
REMARK   67  A    between atoms: _171  and  _172
REMARK   68  A    between atoms: _182  and  _184
REMARK   69  A    between atoms: _184  and  _185
REMARK   70  A    between atoms: _184  and  _187
REMARK   71  A    between atoms: _187  and  _188
REMARK   72  A    between atoms: _188  and  _189
REMARK   73  A    between atoms: _189  and  _190
REMARK   74  A    between atoms: _199  and  _201
REMARK   75  A    between atoms: _201  and  _202
REMARK   76  A    between atoms: _201  and  _204
REMARK   77  A    between atoms: _204  and  _205
REMARK   78  A    between atoms: _205  and  _206
REMARK   79  A    between atoms: _209  and  _211
REMARK   80  A    between atoms: _211  and  _212
REMARK   81  A    between atoms: _211  and  _214
REMARK   82  A    between atoms: _214  and  _215
REMARK   83  A    between atoms: _220  and  _222
REMARK   84  A    between atoms: _222  and  _223
REMARK   85  A    between atoms: _222  and  _225
REMARK   86  A    between atoms: _225  and  _226
REMARK   87  A    between atoms: _229  and  _231
REMARK   88  A    between atoms: _231  and  _232
REMARK   89  A    between atoms: _231  and  _234
REMARK   90  A    between atoms: _234  and  _235
REMARK   91  A    between atoms: _238  and  _240
REMARK   92  A    between atoms: _240  and  _241
REMARK   93  A    between atoms: _240  and  _243
REMARK   94  A    between atoms: _243  and  _244
REMARK   95  A    between atoms: _247  and  _249
REMARK   96  A    between atoms: _249  and  _250
REMARK   97  A    between atoms: _249  and  _252
REMARK   98  A    between atoms: _255  and  _257
REMARK   99  A    between atoms: _257  and  _258
REMARK  100  A    between atoms: _257  and  _260
REMARK  101  A    between atoms: _260  and  _261
REMARK  102  A    between atoms: _266  and  _268
REMARK  103  A    between atoms: _268  and  _269
REMARK  104  A    between atoms: _268  and  _271
REMARK  105  A    between atoms: _271  and  _272
REMARK  106  A    between atoms: _272  and  _273
REMARK  107  A    between atoms: _276  and  _278
REMARK  108  A    between atoms: _278  and  _279
REMARK  109  A    between atoms: _278  and  _281
REMARK  110  A    between atoms: _281  and  _282
REMARK  111  A    between atoms: _285  and  _287
REMARK  112  A    between atoms: _287  and  _288
REMARK  113  A    between atoms: _287  and  _290
REMARK  114  A    between atoms: _290  and  _291
REMARK  115  A    between atoms: _294  and  _296
REMARK  116  A    between atoms: _296  and  _297
REMARK  117  A    between atoms: _296  and  _299
REMARK  118  A    between atoms: _299  and  _300
REMARK  119  A    between atoms: _303  and  _305
REMARK  120  A    between atoms: _305  and  _306
REMARK  121  A    between atoms: _305  and  _308
REMARK  122  A    between atoms: _308  and  _309
REMARK  123  A    between atoms: _309  and  _310
REMARK  124  A    between atoms: _310  and  _311
REMARK  125  A    between atoms: _320  and  _322
REMARK  126  A    between atoms: _322  and  _323
REMARK  127  A    between atoms: _322  and  _325
REMARK  128  A    between atoms: _325  and  _326
REMARK  129  A    between atoms: _326  and  _327
REMARK  130  A    between atoms: _329  and  _331
REMARK  131  A    between atoms: _331  and  _332
REMARK  132  A    between atoms: _335  and  _337
REMARK  133  A    between atoms: _337  and  _338
REMARK  134  A    between atoms: _340  and  _342
REMARK  135  A    between atoms: _342  and  _343
REMARK  136  A    between atoms: _342  and  _345
REMARK  137  A    between atoms: _345  and  _346
REMARK  138  A    between atoms: _349  and  _351
REMARK  139  A    between atoms: _351  and  _352
REMARK  140  A    between atoms: _355  and  _357
REMARK  141  A    between atoms: _357  and  _358
REMARK  142  A    between atoms: _357  and  _360
REMARK  143  A    between atoms: _360  and  _361
REMARK  144  A    between atoms: _361  and  _471
REMARK  145  A    between atoms: _362  and  _364
REMARK  146  A    between atoms: _364  and  _365
REMARK  147  A    between atoms: _364  and  _367
REMARK  148  A    between atoms: _367  and  _368
REMARK  149  A    between atoms: _368  and  _369
REMARK  150  A    between atoms: _372  and  _374
REMARK  151  A    between atoms: _374  and  _375
REMARK  152  A    between atoms: _377  and  _379
REMARK  153  A    between atoms: _379  and  _380
REMARK  154  A    between atoms: _379  and  _382
REMARK  155  A    between atoms: _382  and  _383
REMARK  156  A    between atoms: _386  and  _388
REMARK  157  A    between atoms: _388  and  _389
REMARK  158  A    between atoms: _388  and  _391
REMARK  159  A    between atoms: _391  and  _392
REMARK  160  A    between atoms: _394  and  _396
REMARK  161  A    between atoms: _396  and  _397
REMARK  162  A    between atoms: _399  and  _401
REMARK  163  A    between atoms: _401  and  _402
REMARK  164  A    between atoms: _404  and  _406
REMARK  165  A    between atoms: _406  and  _407
REMARK  166  A    between atoms: _406  and  _409
REMARK  167  A    between atoms: _409  and  _410
REMARK  168  A    between atoms: _413  and  _415
REMARK  169  A    between atoms: _415  and  _416
REMARK  170  A    between atoms: _415  and  _418
REMARK  171  A    between atoms: _421  and  _423
REMARK  172  A    between atoms: _423  and  _424
REMARK  173  A    between atoms: _423  and  _426
REMARK  174  A    between atoms: _426  and  _427
REMARK  175  A    between atoms: _429  and  _431
REMARK  176  A    between atoms: _431  and  _432
REMARK  177  A    between atoms: _431  and  _434
REMARK  178  A    between atoms: _434  and  _435
REMARK  179  A    between atoms: _445  and  _447
REMARK  180  A    between atoms: _447  and  _448
REMARK  181  A    between atoms: _450  and  _452
REMARK  182  A    between atoms: _452  and  _453
REMARK  183  A    between atoms: _452  and  _455
REMARK  184  A    between atoms: _455  and  _456
REMARK  185  A    between atoms: _456  and  _457
REMARK  186  A    between atoms: _460  and  _462
REMARK  187  A    between atoms: _462  and  _463
REMARK  188  A    between atoms: _465  and  _467
REMARK  189  A    between atoms: _467  and  _468
REMARK  190  A    between atoms: _467  and  _470
REMARK  191  A    between atoms: _470  and  _471
REMARK  192  A    between atoms: _472  and  _474
REMARK  193  A    between atoms: _474  and  _475
REMARK  194  A    between atoms: _474  and  _477
REMARK  195  A    between atoms: _477  and  _478
REMARK  196  A    between atoms: _481  and  _483
REMARK  197  A    between atoms: _483  and  _484
REMARK  198  A    between atoms: _483  and  _486
REMARK  199  A    between atoms: _486  and  _487
REMARK  200  A    between atoms: _487  and  _488
REMARK  201  A    between atoms: _488  and  _489
REMARK  202  A    between atoms: _498  and  _500
REMARK  203  A    between atoms: _500  and  _501
REMARK  204  A    between atoms: _500  and  _503
REMARK  205  A    between atoms: _503  and  _504
REMARK  206  A    between atoms: _504  and  _505
REMARK  207  A    between atoms: _505  and  _506
REMARK  208  A    between atoms: _506  and  _507
REMARK  209  A    between atoms: _511  and  _513
REMARK  210  A    between atoms: _513  and  _514
REMARK  211  A    between atoms: _513  and  _516
REMARK  212  A    between atoms: _516  and  _517
REMARK  213  A    between atoms: _522  and  _523
REMARK  214  A    between atoms: _525  and  _527
REMARK  215  A    between atoms: _527  and  _528
REMARK  216  A    between atoms: _530  and  _532
REMARK  217  A    between atoms: _532  and  _533
REMARK  218  A    between atoms: _532  and  _535
REMARK  219  A    between atoms: _535  and  _536
REMARK  220  A    between atoms: _542  and  _544
REMARK  221  A    between atoms: _544  and  _545
REMARK  222  A    between atoms: _544  and  _547
REMARK  223  A    between atoms: _547  and  _548
REMARK  224  A    between atoms: _553  and  _554
REMARK  225  A    between atoms: _556  and  _558
REMARK  226  A    between atoms: _558  and  _559
REMARK  227  A    between atoms: _558  and  _561
REMARK  228  A    between atoms: _561  and  _562
REMARK                            x       y       z     vdW  Elec       q    Type
REMARK                         _______ _______ _______ _____ _____    ______ ____
ROOT
ATOM      1  CA  GLU A   1     -29.106 -38.267  19.837  0.00  0.00    +0.134 C 
ENDROOT
BRANCH   1   2
ATOM      2  N   GLU A   1     -30.413 -37.622  19.863  0.00  0.00    -0.239 NA
ATOM      3  H   GLU A   1     -30.973 -37.630  20.739  0.00  0.00    +0.142 HD
ENDBRANCH   1   2
BRANCH   1   4
ATOM      4  C   GLU A   1     -28.969 -39.263  18.698  0.00  0.00    +0.224 C 
ATOM      5  O   GLU A   1     -27.933 -39.327  18.034  0.00  0.00    -0.287 OA
ENDBRANCH   1   4
BRANCH   1   6
ATOM      6  CB  GLU A   1     -28.826 -38.977  21.160  0.00  0.00    +0.037 C 
BRANCH   6   7
ATOM      7  CG  GLU A   1     -27.348 -39.204  21.382  0.00  0.00    +0.116 C 
BRANCH   7   8
ATOM      8  CD  GLU A   1     -27.053 -39.954  22.658  0.00  0.00    +0.365 C 
ATOM      9  OE2 GLU A   1     -27.720 -39.700  23.684  0.00  0.00    -0.246 OA
ATOM     10  OE1 GLU A   1     -26.145 -40.802  22.626  0.00  0.00    -0.246 OA
ENDBRANCH   7   8
ENDBRANCH   6   7
ENDBRANCH   1   6
TORSDOF 5
REMARK  Name = ../refined-set-2016/1d3d/1d3d_pocket.pdb
REMARK  228 active torsions:
REMARK  status: ('A' for Active; 'I' for Inactive)
REMARK    1  A    between atoms: _1  and  _5
REMARK    2  A    between atoms: _5  and  _6
REMARK    3  A    between atoms: _5  and  _8
REMARK    4  A    between atoms: _8  and  _9
REMARK    5  A    between atoms: _12  and  _14
REMARK    6  A    between atoms: _14  and  _15
REMARK    7  A    between atoms: _14  and  _17
REMARK    8  A    between atoms: _20  and  _22
REMARK    9  A    between atoms: _22  and  _23
REMARK   10  A    between atoms: _22  and  _25
REMARK   11  A    between atoms: _25  and  _26
REMARK   12  A    between atoms: _29  and  _31
REMARK   13  A    between atoms: _31  and  _32
REMARK   14  A    between atoms: _31  and  _34
REMARK   15  A    between atoms: _34  and  _35
REMARK   16  A    between atoms: _35  and  _65
REMARK   17  A    between atoms: _36  and  _38
REMARK   18  A    between atoms: _38  and  _39
REMARK   19  A    between atoms: _42  and  _44
REMARK   20  A    between atoms: _44  and  _45
REMARK   21  A    between atoms: _48  and  _50
REMARK   22  A    between atoms: _50  and  _51
REMARK   23  A    between atoms: _50  and  _53
REMARK   24  A    between atoms: _53  and  _54
REMARK   25  A    between atoms: _59  and  _61
REMARK   26  A    between atoms: _61  and  _62
REMARK   27  A    between atoms: _61  and  _64
REMARK   28  A    between atoms: _64  and  _65
REMARK   29  A    between atoms: _66  and  _68
REMARK   30  A    between atoms: _68  and  _69
REMARK   31  A    between atoms: _68  and  _71
REMARK   32  A    between atoms: _71  and  _72
REMARK   33  A    between atoms: _75  and  _77
REMARK   34  A    between atoms: _77  and  _78
REMARK   35  A    between atoms: _77  and  _80
REMARK   36  A    between atoms: _80  and  _81
REMARK   37  A    between atoms: _86  and  _87
REMARK   38  A    between atoms: _90  and  _91
REMARK   39  A    between atoms: _97  and  _98
REMARK   40  A    between atoms: _103  and  _105
REMARK   41  A    between atoms: _105  and  _106
REMARK   42  A    between atoms: _105  and  _108
REMARK   43  A    between atoms: _108  and  _109
REMARK   44  A    between atoms: _119  and  _121
REMARK   45  A    between atoms: _121  and  _122
REMARK   46  A    between atoms: _121  and  _124
REMARK   47  A    between atoms: _124  and  _125
REMARK   48  A    between atoms: _128  and  _130
REMARK   49  A    between atoms: _130  and  _131
REMARK   50  A    between atoms: _130  and  _133
REMARK   51  A    between atoms: _133  and  _134
REMARK   52  A    between atoms: _134  and  _135
REMARK   53  A    between atoms: _135  and  _136
REMARK   54  A    between atoms: _136  and  _137
REMARK   55  A    between atoms: _141  and  _143
REMARK   56  A    between atoms: _143  and  _144
REMARK   57  A    between atoms: _143  and  _146
REMARK   58  A    between atoms: _146  and  _147
REMARK   59  A    between atoms: _152  and  _153
REMARK   60  A    between atoms: _155  and  _157
REMARK   61  A    between atoms: _157  and  _158
REMARK   62  A    between atoms: _157  and  _160
REMARK   63  A    between atoms: _160  and  _161
REMARK   64  A    between atoms: _166  and  _168
REMARK   65  A    between atoms: _168  and  _169
REMARK   66  A    between atoms: _168  and  _171
REMARK   67  A    between atoms: _171  and  _172
REMARK   68  A    between atoms: _182  and  _184
REMARK   69  A    between atoms: _184  and  _185
REMARK   70  A    between atoms: _184  and  _187
REMARK   71  A    between atoms: _187  and  _188
REMARK   72  A    between atoms: _188  and  _189
REMARK   73  A    between atoms: _189  and  _190
REMARK   74  A    between atoms: _199  and  _201
REMARK   75  A    between atoms: _201  and  _202
REMARK   76  A    between atoms: _201  and  _204
REMARK   77  A    between atoms: _204  and  _205
REMARK   78  A    between atoms: _205  and  _206
REMARK   79  A    between atoms: _209  and  _211
REMARK   80  A    between atoms: _211  and  _212
REMARK   81  A    between atoms: _211  and  _214
REMARK   82  A    between atoms: _214  and  _215
REMARK   83  A    between atoms: _220  and  _222
REMARK   84  A    between atoms: _222  and  _223
REMARK   85  A    between atoms: _222  and  _225
REMARK   86  A    between atoms: _225  and  _226
REMARK   87  A    between atoms: _229  and  _231
REMARK   88  A    between atoms: _231  and  _232
REMARK   89  A    between atoms: _231  and  _234
REMARK   90  A    between atoms: _234  and  _235
REMARK   91  A    between atoms: _238  and  _240
REMARK   92  A    between atoms: _240  and  _241
REMARK   93  A    between atoms: _240  and  _243
REMARK   94  A    between atoms: _243  and  _244
REMARK   95  A    between atoms: _247  and  _249
REMARK   96  A    between atoms: _249  and  _250
REMARK   97  A    between atoms: _249  and  _252
REMARK   98  A    between atoms: _255  and  _257
REMARK   99  A    between atoms: _257  and  _258
REMARK  100  A    between atoms: _257  and  _260
REMARK  101  A    between atoms: _260  and  _261
REMARK  102  A    between atoms: _266  and  _268
REMARK  103  A    between atoms: _268  and  _269
REMARK  104  A    between atoms: _268  and  _271
REMARK  105  A    between atoms: _271  and  _272
REMARK  106  A    between atoms: _272  and  _273
REMARK  107  A    between atoms: _276  and  _278
REMARK  108  A    between atoms: _278  and  _279
REMARK  109  A    between atoms: _278  and  _281
REMARK  110  A    between atoms: _281  and  _282
REMARK  111  A    between atoms: _285  and  _287
REMARK  112  A    between atoms: _287  and  _288
REMARK  113  A    between atoms: _287  and  _290
REMARK  114  A    between atoms: _290  and  _291
REMARK  115  A    between atoms: _294  and  _296
REMARK  116  A    between atoms: _296  and  _297
REMARK  117  A    between atoms: _296  and  _299
REMARK  118  A    between atoms: _299  and  _300
REMARK  119  A    between atoms: _303  and  _305
REMARK  120  A    between atoms: _305  and  _306
REMARK  121  A    between atoms: _305  and  _308
REMARK  122  A    between atoms: _308  and  _309
REMARK  123  A    between atoms: _309  and  _310
REMARK  124  A    between atoms: _310  and  _311
REMARK  125  A    between atoms: _320  and  _322
REMARK  126  A    between atoms: _322  and  _323
REMARK  127  A    between atoms: _322  and  _325
REMARK  128  A    between atoms: _325  and  _326
REMARK  129  A    between atoms: _326  and  _327
REMARK  130  A    between atoms: _329  and  _331
REMARK  131  A    between atoms: _331  and  _332
REMARK  132  A    between atoms: _335  and  _337
REMARK  133  A    between atoms: _337  and  _338
REMARK  134  A    between atoms: _340  and  _342
REMARK  135  A    between atoms: _342  and  _343
REMARK  136  A    between atoms: _342  and  _345
REMARK  137  A    between atoms: _345  and  _346
REMARK  138  A    between atoms: _349  and  _351
REMARK  139  A    between atoms: _351  and  _352
REMARK  140  A    between atoms: _355  and  _357
REMARK  141  A    between atoms: _357  and  _358
REMARK  142  A    between atoms: _357  and  _360
REMARK  143  A    between atoms: _360  and  _361
REMARK  144  A    between atoms: _361  and  _471
REMARK  145  A    between atoms: _362  and  _364
REMARK  146  A    between atoms: _364  and  _365
REMARK  147  A    between atoms: _364  and  _367
REMARK  148  A    between atoms: _367  and  _368
REMARK  149  A    between atoms: _368  and  _369
REMARK  150  A    between atoms: _372  and  _374
REMARK  151  A    between atoms: _374  and  _375
REMARK  152  A    between atoms: _377  and  _379
REMARK  153  A    between atoms: _379  and  _380
REMARK  154  A    between atoms: _379  and  _382
REMARK  155  A    between atoms: _382  and  _383
REMARK  156  A    between atoms: _386  and  _388
REMARK  157  A    between atoms: _388  and  _389
REMARK  158  A    between atoms: _388  and  _391
REMARK  159  A    between atoms: _391  and  _392
REMARK  160  A    between atoms: _394  and  _396
REMARK  161  A    between atoms: _396  and  _397
REMARK  162  A    between atoms: _399  and  _401
REMARK  163  A    between atoms: _401  and  _402
REMARK  164  A    between atoms: _404  and  _406
REMARK  165  A    between atoms: _406  and  _407
REMARK  166  A    between atoms: _406  and  _409
REMARK  167  A    between atoms: _409  and  _410
REMARK  168  A    between atoms: _413  and  _415
REMARK  169  A    between atoms: _415  and  _416
REMARK  170  A    between atoms: _415  and  _418
REMARK  171  A    between atoms: _421  and  _423
REMARK  172  A    between atoms: _423  and  _424
REMARK  173  A    between atoms: _423  and  _426
REMARK  174  A    between atoms: _426  and  _427
REMARK  175  A    between atoms: _429  and  _431
REMARK  176  A    between atoms: _431  and  _432
REMARK  177  A    between atoms: _431  and  _434
REMARK  178  A    between atoms: _434  and  _435
REMARK  179  A    between atoms: _445  and  _447
REMARK  180  A    between atoms: _447  and  _448
REMARK  181  A    between atoms: _450  and  _452
REMARK  182  A    between atoms: _452  and  _453
REMARK  183  A    between atoms: _452  and  _455
REMARK  184  A    between atoms: _455  and  _456
REMARK  185  A    between atoms: _456  and  _457
REMARK  186  A    between atoms: _460  and  _462
REMARK  187  A    between atoms: _462  and  _463
REMARK  188  A    between atoms: _465  and  _467
REMARK  189  A    between atoms: _467  and  _468
REMARK  190  A    between atoms: _467  and  _470
REMARK  191  A    between atoms: _470  and  _471
REMARK  192  A    between atoms: _472  and  _474
REMARK  193  A    between atoms: _474  and  _475
REMARK  194  A    between atoms: _474  and  _477
REMARK  195  A    between atoms: _477  and  _478
REMARK  196  A    between atoms: _481  and  _483
REMARK  197  A    between atoms: _483  and  _484
REMARK  198  A    between atoms: _483  and  _486
REMARK  199  A    between atoms: _486  and  _487
REMARK  200  A    between atoms: _487  and  _488
REMARK  201  A    between atoms: _488  and  _489
REMARK  202  A    between atoms: _498  and  _500
REMARK  203  A    between atoms: _500  and  _501
REMARK  204  A    between atoms: _500  and  _503
REMARK  205  A    between atoms: _503  and  _504
REMARK  206  A    between atoms: _504  and  _505
REMARK  207  A    between atoms: _505  and  _506
REMARK  208  A    between atoms: _506  and  _507
REMARK  209  A    between atoms: _511  and  _513
REMARK  210  A    between atoms: _513  and  _514
REMARK  211  A    between atoms: _513  and  _516
REMARK  212  A    between atoms: _516  and  _517
REMARK  213  A    between atoms: _522  and  _523
REMARK  214  A    between atoms: _525  and  _527
REMARK  215  A    between atoms: _527  and  _528
REMARK  216  A    between atoms: _530  and  _532
REMARK  217  A    between atoms: _532  and  _533
REMARK  218  A    between atoms: _532  and  _535
REMARK  219  A    between atoms: _535  and  _536
REMARK  220  A    between atoms: _542  and  _544
REMARK  221  A    between atoms: _544  and  _545
REMARK  222  A    between atoms: _544  and  _547
REMARK  223  A    between atoms: _547  and  _548
REMARK  224  A    between atoms: _553  and  _554
REMARK  225  A    between atoms: _556  and  _558
REMARK  226  A    between atoms: _558  and  _559
REMARK  227  A    between atoms: _558  and  _561
REMARK  228  A    between atoms: _561  and  _562
REMARK                            x       y       z     vdW  Elec       q    Type
REMARK                         _______ _______ _______ _____ _____    ______ ____
ROOT
ATOM      1  CA  LEU A   1     -31.793 -23.908  29.761  0.00  0.00    +0.133 C 
ENDROOT
BRANCH   1   2
ATOM      2  N   LEU A   1     -32.284 -22.983  28.737  0.00  0.00    -0.239 NA
ATOM      3  H   LEU A   1     -31.690 -22.178  28.454  0.00  0.00    +0.142 HD
ENDBRANCH   1   2
BRANCH   1   4
ATOM      4  C   LEU A   1     -31.170 -23.205  30.963  0.00  0.00    +0.224 C 
ATOM      5  O   LEU A   1     -30.468 -22.198  30.814  0.00  0.00    -0.287 OA
ENDBRANCH   1   4
BRANCH   1   6
ATOM      6  CB  LEU A   1     -30.748 -24.842  29.156  0.00  0.00    +0.025 C 
BRANCH   6   7
ATOM      7  CG  LEU A   1     -31.154 -25.594  27.888  0.00  0.00    +0.002 C 
ATOM      8  CD2 LEU A   1     -32.079 -26.747  28.239  0.00  0.00    +0.000 C 
ATOM      9  CD1 LEU A   1     -29.910 -26.088  27.180  0.00  0.00    +0.000 C 
ENDBRANCH   6   7
ENDBRANCH   1   6
TORSDOF 4
REMARK  Name = ../refined-set-2016/1d3d/1d3d_pocket.pdb
REMARK  228 active torsions:
REMARK  status: ('A' for Active; 'I' for Inactive)
REMARK    1  A    between atoms: _1  and  _5
REMARK    2  A    between atoms: _5  and  _6
REMARK    3  A    between atoms: _5  and  _8
REMARK    4  A    between atoms: _8  and  _9
REMARK    5  A    between atoms: _12  and  _14
REMARK    6  A    between atoms: _14  and  _15
REMARK    7  A    between atoms: _14  and  _17
REMARK    8  A    between atoms: _20  and  _22
REMARK    9  A    between atoms: _22  and  _23
REMARK   10  A    between atoms: _22  and  _25
REMARK   11  A    between atoms: _25  and  _26
REMARK   12  A    between atoms: _29  and  _31
REMARK   13  A    between atoms: _31  and  _32
REMARK   14  A    between atoms: _31  and  _34
REMARK   15  A    between atoms: _34  and  _35
REMARK   16  A    between atoms: _35  and  _65
REMARK   17  A    between atoms: _36  and  _38
REMARK   18  A    between atoms: _38  and  _39
REMARK   19  A    between atoms: _42  and  _44
REMARK   20  A    between atoms: _44  and  _45
REMARK   21  A    between atoms: _48  and  _50
REMARK   22  A    between atoms: _50  and  _51
REMARK   23  A    between atoms: _50  and  _53
REMARK   24  A    between atoms: _53  and  _54
REMARK   25  A    between atoms: _59  and  _61
REMARK   26  A    between atoms: _61  and  _62
REMARK   27  A    between atoms: _61  and  _64
REMARK   28  A    between atoms: _64  and  _65
REMARK   29  A    between atoms: _66  and  _68
REMARK   30  A    between atoms: _68  and  _69
REMARK   31  A    between atoms: _68  and  _71
REMARK   32  A    between atoms: _71  and  _72
REMARK   33  A    between atoms: _75  and  _77
REMARK   34  A    between atoms: _77  and  _78
REMARK   35  A    between atoms: _77  and  _80
REMARK   36  A    between atoms: _80  and  _81
REMARK   37  A    between atoms: _86  and  _87
REMARK   38  A    between atoms: _90  and  _91
REMARK   39  A    between atoms: _97  and  _98
REMARK   40  A    between atoms: _103  and  _105
REMARK   41  A    between atoms: _105  and  _106
REMARK   42  A    between atoms: _105  and  _108
REMARK   43  A    between atoms: _108  and  _109
REMARK   44  A    between atoms: _119  and  _121
REMARK   45  A    between atoms: _121  and  _122
REMARK   46  A    between atoms: _121  and  _124
REMARK   47  A    between atoms: _124  and  _125
REMARK   48  A    between atoms: _128  and  _130
REMARK   49  A    between atoms: _130  and  _131
REMARK   50  A    between atoms: _130  and  _133
REMARK   51  A    between atoms: _133  and  _134
REMARK   52  A    between atoms: _134  and  _135
REMARK   53  A    between atoms: _135  and  _136
REMARK   54  A    between atoms: _136  and  _137
REMARK   55  A    between atoms: _141  and  _143
REMARK   56  A    between atoms: _143  and  _144
REMARK   57  A    between atoms: _143  and  _146
REMARK   58  A    between atoms: _146  and  _147
REMARK   59  A    between atoms: _152  and  _153
REMARK   60  A    between atoms: _155  and  _157
REMARK   61  A    between atoms: _157  and  _158
REMARK   62  A    between atoms: _157  and  _160
REMARK   63  A    between atoms: _160  and  _161
REMARK   64  A    between atoms: _166  and  _168
REMARK   65  A    between atoms: _168  and  _169
REMARK   66  A    between atoms: _168  and  _171
REMARK   67  A    between atoms: _171  and  _172
REMARK   68  A    between atoms: _182  and  _184
REMARK   69  A    between atoms: _184  and  _185
REMARK   70  A    between atoms: _184  and  _187
REMARK   71  A    between atoms: _187  and  _188
REMARK   72  A    between atoms: _188  and  _189
REMARK   73  A    between atoms: _189  and  _190
REMARK   74  A    between atoms: _199  and  _201
REMARK   75  A    between atoms: _201  and  _202
REMARK   76  A    between atoms: _201  and  _204
REMARK   77  A    between atoms: _204  and  _205
REMARK   78  A    between atoms: _205  and  _206
REMARK   79  A    between atoms: _209  and  _211
REMARK   80  A    between atoms: _211  and  _212
REMARK   81  A    between atoms: _211  and  _214
REMARK   82  A    between atoms: _214  and  _215
REMARK   83  A    between atoms: _220  and  _222
REMARK   84  A    between atoms: _222  and  _223
REMARK   85  A    between atoms: _222  and  _225
REMARK   86  A    between atoms: _225  and  _226
REMARK   87  A    between atoms: _229  and  _231
REMARK   88  A    between atoms: _231  and  _232
REMARK   89  A    between atoms: _231  and  _234
REMARK   90  A    between atoms: _234  and  _235
REMARK   91  A    between atoms: _238  and  _240
REMARK   92  A    between atoms: _240  and  _241
REMARK   93  A    between atoms: _240  and  _243
REMARK   94  A    between atoms: _243  and  _244
REMARK   95  A    between atoms: _247  and  _249
REMARK   96  A    between atoms: _249  and  _250
REMARK   97  A    between atoms: _249  and  _252
REMARK   98  A    between atoms: _255  and  _257
REMARK   99  A    between atoms: _257  and  _258
REMARK  100  A    between atoms: _257  and  _260
REMARK  101  A    between atoms: _260  and  _261
REMARK  102  A    between atoms: _266  and  _268
REMARK  103  A    between atoms: _268  and  _269
REMARK  104  A    between atoms: _268  and  _271
REMARK  105  A    between atoms: _271  and  _272
REMARK  106  A    between atoms: _272  and  _273
REMARK  107  A    between atoms: _276  and  _278
REMARK  108  A    between atoms: _278  and  _279
REMARK  109  A    between atoms: _278  and  _281
REMARK  110  A    between atoms: _281  and  _282
REMARK  111  A    between atoms: _285  and  _287
REMARK  112  A    between atoms: _287  and  _288
REMARK  113  A    between atoms: _287  and  _290
REMARK  114  A    between atoms: _290  and  _291
REMARK  115  A    between atoms: _294  and  _296
REMARK  116  A    between atoms: _296  and  _297
REMARK  117  A    between atoms: _296  and  _299
REMARK  118  A    between atoms: _299  and  _300
REMARK  119  A    between atoms: _303  and  _305
REMARK  120  A    between atoms: _305  and  _306
REMARK  121  A    between atoms: _305  and  _308
REMARK  122  A    between atoms: _308  and  _309
REMARK  123  A    between atoms: _309  and  _310
REMARK  124  A    between atoms: _310  and  _311
REMARK  125  A    between atoms: _320  and  _322
REMARK  126  A    between atoms: _322  and  _323
REMARK  127  A    between atoms: _322  and  _325
REMARK  128  A    between atoms: _325  and  _326
REMARK  129  A    between atoms: _326  and  _327
REMARK  130  A    between atoms: _329  and  _331
REMARK  131  A    between atoms: _331  and  _332
REMARK  132  A    between atoms: _335  and  _337
REMARK  133  A    between atoms: _337  and  _338
REMARK  134  A    between atoms: _340  and  _342
REMARK  135  A    between atoms: _342  and  _343
REMARK  136  A    between atoms: _342  and  _345
REMARK  137  A    between atoms: _345  and  _346
REMARK  138  A    between atoms: _349  and  _351
REMARK  139  A    between atoms: _351  and  _352
REMARK  140  A    between atoms: _355  and  _357
REMARK  141  A    between atoms: _357  and  _358
REMARK  142  A    between atoms: _357  and  _360
REMARK  143  A    between atoms: _360  and  _361
REMARK  144  A    between atoms: _361  and  _471
REMARK  145  A    between atoms: _362  and  _364
REMARK  146  A    between atoms: _364  and  _365
REMARK  147  A    between atoms: _364  and  _367
REMARK  148  A    between atoms: _367  and  _368
REMARK  149  A    between atoms: _368  and  _369
REMARK  150  A    between atoms: _372  and  _374
REMARK  151  A    between atoms: _374  and  _375
REMARK  152  A    between atoms: _377  and  _379
REMARK  153  A    between atoms: _379  and  _380
REMARK  154  A    between atoms: _379  and  _382
REMARK  155  A    between atoms: _382  and  _383
REMARK  156  A    between atoms: _386  and  _388
REMARK  157  A    between atoms: _388  and  _389
REMARK  158  A    between atoms: _388  and  _391
REMARK  159  A    between atoms: _391  and  _392
REMARK  160  A    between atoms: _394  and  _396
REMARK  161  A    between atoms: _396  and  _397
REMARK  162  A    between atoms: _399  and  _401
REMARK  163  A    between atoms: _401  and  _402
REMARK  164  A    between atoms: _404  and  _406
REMARK  165  A    between atoms: _406  and  _407
REMARK  166  A    between atoms: _406  and  _409
REMARK  167  A    between atoms: _409  and  _410
REMARK  168  A    between atoms: _413  and  _415
REMARK  169  A    between atoms: _415  and  _416
REMARK  170  A    between atoms: _415  and  _418
REMARK  171  A    between atoms: _421  and  _423
REMARK  172  A    between atoms: _423  and  _424
REMARK  173  A    between atoms: _423  and  _426
REMARK  174  A    between atoms: _426  and  _427
REMARK  175  A    between atoms: _429  and  _431
REMARK  176  A    between atoms: _431  and  _432
REMARK  177  A    between atoms: _431  and  _434
REMARK  178  A    between atoms: _434  and  _435
REMARK  179  A    between atoms: _445  and  _447
REMARK  180  A    between atoms: _447  and  _448
REMARK  181  A    between atoms: _450  and  _452
REMARK  182  A    between atoms: _452  and  _453
REMARK  183  A    between atoms: _452  and  _455
REMARK  184  A    between atoms: _455  and  _456
REMARK  185  A    between atoms: _456  and  _457
REMARK  186  A    between atoms: _460  and  _462
REMARK  187  A    between atoms: _462  and  _463
REMARK  188  A    between atoms: _465  and  _467
REMARK  189  A    between atoms: _467  and  _468
REMARK  190  A    between atoms: _467  and  _470
REMARK  191  A    between atoms: _470  and  _471
REMARK  192  A    between atoms: _472  and  _474
REMARK  193  A    between atoms: _474  and  _475
REMARK  194  A    between atoms: _474  and  _477
REMARK  195  A    between atoms: _477  and  _478
REMARK  196  A    between atoms: _481  and  _483
REMARK  197  A    between atoms: _483  and  _484
REMARK  198  A    between atoms: _483  and  _486
REMARK  199  A    between atoms: _486  and  _487
REMARK  200  A    between atoms: _487  and  _488
REMARK  201  A    between atoms: _488  and  _489
REMARK  202  A    between atoms: _498  and  _500
REMARK  203  A    between atoms: _500  and  _501
REMARK  204  A    between atoms: _500  and  _503
REMARK  205  A    between atoms: _503  and  _504
REMARK  206  A    between atoms: _504  and  _505
REMARK  207  A    between atoms: _505  and  _506
REMARK  208  A    between atoms: _506  and  _507
REMARK  209  A    between atoms: _511  and  _513
REMARK  210  A    between atoms: _513  and  _514
REMARK  211  A    between atoms: _513  and  _516
REMARK  212  A    between atoms: _516  and  _517
REMARK  213  A    between atoms: _522  and  _523
REMARK  214  A    between atoms: _525  and  _527
REMARK  215  A    between atoms: _527  and  _528
REMARK  216  A    between atoms: _530  and  _532
REMARK  217  A    between atoms: _532  and  _533
REMARK  218  A    between atoms: _532  and  _535
REMARK  219  A    between atoms: _535  and  _536
REMARK  220  A    between atoms: _542  and  _544
REMARK  221  A    between atoms: _544  and  _545
REMARK  222  A    between atoms: _544  and  _547
REMARK  223  A    between atoms: _547  and  _548
REMARK  224  A    between atoms: _553  and  _554
REMARK  225  A    between atoms: _556  and  _558
REMARK  226  A    between atoms: _558  and  _559
REMARK  227  A    between atoms: _558  and  _561
REMARK  228  A    between atoms: _561  and  _562
REMARK                            x       y       z     vdW  Elec       q    Type
REMARK                         _______ _______ _______ _____ _____    ______ ____
ROOT
ATOM      1  CA  THR A   1     -19.079 -36.919  34.539  0.00  0.00    +0.160 C 
ENDROOT
BRANCH   1   2
ATOM      2  N   THR A   1     -19.996 -36.404  35.543  0.00  0.00    -0.237 NA
ATOM      3  H   THR A   1     -19.635 -35.851  36.346  0.00  0.00    +0.142 HD
ENDBRANCH   1   2
BRANCH   1   4
ATOM      4  C   THR A   1     -17.744 -37.342  35.131  0.00  0.00    +0.227 C 
ATOM      5  O   THR A   1     -17.437 -36.984  36.258  0.00  0.00    -0.287 OA
ENDBRANCH   1   4
BRANCH   1   6
ATOM      6  CB  THR A   1     -18.806 -35.820  33.511  0.00  0.00    +0.134 C 
ATOM      7  CG2 THR A   1     -18.190 -34.606  34.209  0.00  0.00    +0.034 C 
BRANCH   6   8
ATOM      8  OG1 THR A   1     -17.914 -36.298  32.502  0.00  0.00    -0.383 OA
ATOM      9  HG1 THR A   1     -18.321 -37.076  32.045  0.00  0.00    +0.210 HD
ENDBRANCH   6   8
ENDBRANCH   1   6
TORSDOF 4
REMARK  Name = ../refined-set-2016/1d3d/1d3d_pocket.pdb
REMARK  228 active torsions:
REMARK  status: ('A' for Active; 'I' for Inactive)
REMARK    1  A    between atoms: _1  and  _5
REMARK    2  A    between atoms: _5  and  _6
REMARK    3  A    between atoms: _5  and  _8
REMARK    4  A    between atoms: _8  and  _9
REMARK    5  A    between atoms: _12  and  _14
REMARK    6  A    between atoms: _14  and  _15
REMARK    7  A    between atoms: _14  and  _17
REMARK    8  A    between atoms: _20  and  _22
REMARK    9  A    between atoms: _22  and  _23
REMARK   10  A    between atoms: _22  and  _25
REMARK   11  A    between atoms: _25  and  _26
REMARK   12  A    between atoms: _29  and  _31
REMARK   13  A    between atoms: _31  and  _32
REMARK   14  A    between atoms: _31  and  _34
REMARK   15  A    between atoms: _34  and  _35
REMARK   16  A    between atoms: _35  and  _65
REMARK   17  A    between atoms: _36  and  _38
REMARK   18  A    between atoms: _38  and  _39
REMARK   19  A    between atoms: _42  and  _44
REMARK   20  A    between atoms: _44  and  _45
REMARK   21  A    between atoms: _48  and  _50
REMARK   22  A    between atoms: _50  and  _51
REMARK   23  A    between atoms: _50  and  _53
REMARK   24  A    between atoms: _53  and  _54
REMARK   25  A    between atoms: _59  and  _61
REMARK   26  A    between atoms: _61  and  _62
REMARK   27  A    between atoms: _61  and  _64
REMARK   28  A    between atoms: _64  and  _65
REMARK   29  A    between atoms: _66  and  _68
REMARK   30  A    between atoms: _68  and  _69
REMARK   31  A    between atoms: _68  and  _71
REMARK   32  A    between atoms: _71  and  _72
REMARK   33  A    between atoms: _75  and  _77
REMARK   34  A    between atoms: _77  and  _78
REMARK   35  A    between atoms: _77  and  _80
REMARK   36  A    between atoms: _80  and  _81
REMARK   37  A    between atoms: _86  and  _87
REMARK   38  A    between atoms: _90  and  _91
REMARK   39  A    between atoms: _97  and  _98
REMARK   40  A    between atoms: _103  and  _105
REMARK   41  A    between atoms: _105  and  _106
REMARK   42  A    between atoms: _105  and  _108
REMARK   43  A    between atoms: _108  and  _109
REMARK   44  A    between atoms: _119  and  _121
REMARK   45  A    between atoms: _121  and  _122
REMARK   46  A    between atoms: _121  and  _124
REMARK   47  A    between atoms: _124  and  _125
REMARK   48  A    between atoms: _128  and  _130
REMARK   49  A    between atoms: _130  and  _131
REMARK   50  A    between atoms: _130  and  _133
REMARK   51  A    between atoms: _133  and  _134
REMARK   52  A    between atoms: _134  and  _135
REMARK   53  A    between atoms: _135  and  _136
REMARK   54  A    between atoms: _136  and  _137
REMARK   55  A    between atoms: _141  and  _143
REMARK   56  A    between atoms: _143  and  _144
REMARK   57  A    between atoms: _143  and  _146
REMARK   58  A    between atoms: _146  and  _147
REMARK   59  A    between atoms: _152  and  _153
REMARK   60  A    between atoms: _155  and  _157
REMARK   61  A    between atoms: _157  and  _158
REMARK   62  A    between atoms: _157  and  _160
REMARK   63  A    between atoms: _160  and  _161
REMARK   64  A    between atoms: _166  and  _168
REMARK   65  A    between atoms: _168  and  _169
REMARK   66  A    between atoms: _168  and  _171
REMARK   67  A    between atoms: _171  and  _172
REMARK   68  A    between atoms: _182  and  _184
REMARK   69  A    between atoms: _184  and  _185
REMARK   70  A    between atoms: _184  and  _187
REMARK   71  A    between atoms: _187  and  _188
REMARK   72  A    between atoms: _188  and  _189
REMARK   73  A    between atoms: _189  and  _190
REMARK   74  A    between atoms: _199  and  _201
REMARK   75  A    between atoms: _201  and  _202
REMARK   76  A    between atoms: _201  and  _204
REMARK   77  A    between atoms: _204  and  _205
REMARK   78  A    between atoms: _205  and  _206
REMARK   79  A    between atoms: _209  and  _211
REMARK   80  A    between atoms: _211  and  _212
REMARK   81  A    between atoms: _211  and  _214
REMARK   82  A    between atoms: _214  and  _215
REMARK   83  A    between atoms: _220  and  _222
REMARK   84  A    between atoms: _222  and  _223
REMARK   85  A    between atoms: _222  and  _225
REMARK   86  A    between atoms: _225  and  _226
REMARK   87  A    between atoms: _229  and  _231
REMARK   88  A    between atoms: _231  and  _232
REMARK   89  A    between atoms: _231  and  _234
REMARK   90  A    between atoms: _234  and  _235
REMARK   91  A    between atoms: _238  and  _240
REMARK   92  A    between atoms: _240  and  _241
REMARK   93  A    between atoms: _240  and  _243
REMARK   94  A    between atoms: _243  and  _244
REMARK   95  A    between atoms: _247  and  _249
REMARK   96  A    between atoms: _249  and  _250
REMARK   97  A    between atoms: _249  and  _252
REMARK   98  A    between atoms: _255  and  _257
REMARK   99  A    between atoms: _257  and  _258
REMARK  100  A    between atoms: _257  and  _260
REMARK  101  A    between atoms: _260  and  _261
REMARK  102  A    between atoms: _266  and  _268
REMARK  103  A    between atoms: _268  and  _269
REMARK  104  A    between atoms: _268  and  _271
REMARK  105  A    between atoms: _271  and  _272
REMARK  106  A    between atoms: _272  and  _273
REMARK  107  A    between atoms: _276  and  _278
REMARK  108  A    between atoms: _278  and  _279
REMARK  109  A    between atoms: _278  and  _281
REMARK  110  A    between atoms: _281  and  _282
REMARK  111  A    between atoms: _285  and  _287
REMARK  112  A    between atoms: _287  and  _288
REMARK  113  A    between atoms: _287  and  _290
REMARK  114  A    between atoms: _290  and  _291
REMARK  115  A    between atoms: _294  and  _296
REMARK  116  A    between atoms: _296  and  _297
REMARK  117  A    between atoms: _296  and  _299
REMARK  118  A    between atoms: _299  and  _300
REMARK  119  A    between atoms: _303  and  _305
REMARK  120  A    between atoms: _305  and  _306
REMARK  121  A    between atoms: _305  and  _308
REMARK  122  A    between atoms: _308  and  _309
REMARK  123  A    between atoms: _309  and  _310
REMARK  124  A    between atoms: _310  and  _311
REMARK  125  A    between atoms: _320  and  _322
REMARK  126  A    between atoms: _322  and  _323
REMARK  127  A    between atoms: _322  and  _325
REMARK  128  A    between atoms: _325  and  _326
REMARK  129  A    between atoms: _326  and  _327
REMARK  130  A    between atoms: _329  and  _331
REMARK  131  A    between atoms: _331  and  _332
REMARK  132  A    between atoms: _335  and  _337
REMARK  133  A    between atoms: _337  and  _338
REMARK  134  A    between atoms: _340  and  _342
REMARK  135  A    between atoms: _342  and  _343
REMARK  136  A    between atoms: _342  and  _345
REMARK  137  A    between atoms: _345  and  _346
REMARK  138  A    between atoms: _349  and  _351
REMARK  139  A    between atoms: _351  and  _352
REMARK  140  A    between atoms: _355  and  _357
REMARK  141  A    between atoms: _357  and  _358
REMARK  142  A    between atoms: _357  and  _360
REMARK  143  A    between atoms: _360  and  _361
REMARK  144  A    between atoms: _361  and  _471
REMARK  145  A    between atoms: _362  and  _364
REMARK  146  A    between atoms: _364  and  _365
REMARK  147  A    between atoms: _364  and  _367
REMARK  148  A    between atoms: _367  and  _368
REMARK  149  A    between atoms: _368  and  _369
REMARK  150  A    between atoms: _372  and  _374
REMARK  151  A    between atoms: _374  and  _375
REMARK  152  A    between atoms: _377  and  _379
REMARK  153  A    between atoms: _379  and  _380
REMARK  154  A    between atoms: _379  and  _382
REMARK  155  A    between atoms: _382  and  _383
REMARK  156  A    between atoms: _386  and  _388
REMARK  157  A    between atoms: _388  and  _389
REMARK  158  A    between atoms: _388  and  _391
REMARK  159  A    between atoms: _391  and  _392
REMARK  160  A    between atoms: _394  and  _396
REMARK  161  A    between atoms: _396  and  _397
REMARK  162  A    between atoms: _399  and  _401
REMARK  163  A    between atoms: _401  and  _402
REMARK  164  A    between atoms: _404  and  _406
REMARK  165  A    between atoms: _406  and  _407
REMARK  166  A    between atoms: _406  and  _409
REMARK  167  A    between atoms: _409  and  _410
REMARK  168  A    between atoms: _413  and  _415
REMARK  169  A    between atoms: _415  and  _416
REMARK  170  A    between atoms: _415  and  _418
REMARK  171  A    between atoms: _421  and  _423
REMARK  172  A    between atoms: _423  and  _424
REMARK  173  A    between atoms: _423  and  _426
REMARK  174  A    between atoms: _426  and  _427
REMARK  175  A    between atoms: _429  and  _431
REMARK  176  A    between atoms: _431  and  _432
REMARK  177  A    between atoms: _431  and  _434
REMARK  178  A    between atoms: _434  and  _435
REMARK  179  A    between atoms: _445  and  _447
REMARK  180  A    between atoms: _447  and  _448
REMARK  181  A    between atoms: _450  and  _452
REMARK  182  A    between atoms: _452  and  _453
REMARK  183  A    between atoms: _452  and  _455
REMARK  184  A    between atoms: _455  and  _456
REMARK  185  A    between atoms: _456  and  _457
REMARK  186  A    between atoms: _460  and  _462
REMARK  187  A    between atoms: _462  and  _463
REMARK  188  A    between atoms: _465  and  _467
REMARK  189  A    between atoms: _467  and  _468
REMARK  190  A    between atoms: _467  and  _470
REMARK  191  A    between atoms: _470  and  _471
REMARK  192  A    between atoms: _472  and  _474
REMARK  193  A    between atoms: _474  and  _475
REMARK  194  A    between atoms: _474  and  _477
REMARK  195  A    between atoms: _477  and  _478
REMARK  196  A    between atoms: _481  and  _483
REMARK  197  A    between atoms: _483  and  _484
REMARK  198  A    between atoms: _483  and  _486
REMARK  199  A    between atoms: _486  and  _487
REMARK  200  A    between atoms: _487  and  _488
REMARK  201  A    between atoms: _488  and  _489
REMARK  202  A    between atoms: _498  and  _500
REMARK  203  A    between atoms: _500  and  _501
REMARK  204  A    between atoms: _500  and  _503
REMARK  205  A    between atoms: _503  and  _504
REMARK  206  A    between atoms: _504  and  _505
REMARK  207  A    between atoms: _505  and  _506
REMARK  208  A    between atoms: _506  and  _507
REMARK  209  A    between atoms: _511  and  _513
REMARK  210  A    between atoms: _513  and  _514
REMARK  211  A    between atoms: _513  and  _516
REMARK  212  A    between atoms: _516  and  _517
REMARK  213  A    between atoms: _522  and  _523
REMARK  214  A    between atoms: _525  and  _527
REMARK  215  A    between atoms: _527  and  _528
REMARK  216  A    between atoms: _530  and  _532
REMARK  217  A    between atoms: _532  and  _533
REMARK  218  A    between atoms: _532  and  _535
REMARK  219  A    between atoms: _535  and  _536
REMARK  220  A    between atoms: _542  and  _544
REMARK  221  A    between atoms: _544  and  _545
REMARK  222  A    between atoms: _544  and  _547
REMARK  223  A    between atoms: _547  and  _548
REMARK  224  A    between atoms: _553  and  _554
REMARK  225  A    between atoms: _556  and  _558
REMARK  226  A    between atoms: _558  and  _559
REMARK  227  A    between atoms: _558  and  _561
REMARK  228  A    between atoms: _561  and  _562
REMARK                            x       y       z     vdW  Elec       q    Type
REMARK                         _______ _______ _______ _____ _____    ______ ____
ROOT
ATOM      1  CA  ARG A   2     -12.126 -33.161  34.673  0.00  0.00    +0.137 C 
ENDROOT
BRANCH   1   4
ATOM      2  C   ILE A   1     -13.769 -34.681  33.732  0.00  0.00    +0.238 C 
ATOM      3  O   ILE A   1     -14.634 -34.302  34.527  0.00  0.00    -0.274 OA
ATOM      4  N   ARG A   2     -12.527 -34.210  33.737  0.00  0.00    -0.298 N 
ATOM      5  H   ARG A   2     -11.831 -34.593  33.066  0.00  0.00    +0.150 HD
BRANCH   2   6
ATOM      6  CA  ILE A   1     -14.092 -35.745  32.687  0.00  0.00    +0.145 C 
BRANCH   6   7
ATOM      7  N   ILE A   1     -15.003 -36.716  33.277  0.00  0.00    -0.238 NA
ATOM      8  H   ILE A   1     -15.992 -36.752  32.959  0.00  0.00    +0.142 HD
ENDBRANCH   6   7
BRANCH   6   9
ATOM      9  CB  ILE A   1     -14.732 -35.035  31.463  0.00  0.00    +0.025 C 
ATOM     10  CG2 ILE A   1     -13.709 -34.106  30.801  0.00  0.00    +0.002 C 
BRANCH   9  11
ATOM     11  CG1 ILE A   1     -15.260 -36.078  30.471  0.00  0.00    +0.002 C 
ATOM     12  CD1 ILE A   1     -14.172 -36.766  29.667  0.00  0.00    +0.000 C 
ENDBRANCH   9  11
ENDBRANCH   6   9
ENDBRANCH   2   6
ENDBRANCH   1   4
BRANCH   1  13
ATOM     13  C   ARG A   2     -12.583 -31.798  34.138  0.00  0.00    +0.227 C 
ATOM     14  O   ARG A   2     -12.159 -31.374  33.059  0.00  0.00    -0.286 OA
ENDBRANCH   1  13
BRANCH   1  15
ATOM     15  CB  ARG A   2     -10.609 -33.141  34.831  0.00  0.00    +0.031 C 
BRANCH  15  16
ATOM     16  CG  ARG A   2     -10.091 -31.922  35.598  0.00  0.00    +0.045 C 
BRANCH  16  17
ATOM     17  CD  ARG A   2      -8.582 -31.978  35.778  0.00  0.00    +0.174 C 
BRANCH  17  18
ATOM     18  NE  ARG A   2      -7.872 -31.709  34.528  0.00  0.00    -0.265 N 
ATOM     19  CZ  ARG A   2      -7.570 -30.490  34.089  0.00  0.00    +0.342 C 
ATOM     20  NH2 ARG A   2      -7.916 -29.424  34.795  0.00  0.00    -0.292 N 
ATOM     21 HH21 ARG A   2      -8.425 -29.539  35.695  0.00  0.00    +0.255 HD
ATOM     22 HH22 ARG A   2      -7.679 -28.472  34.450  0.00  0.00    +0.255 HD
ATOM     23  NH1 ARG A   2      -6.915 -30.335  32.949  0.00  0.00    -0.292 N 
ATOM     24 HH11 ARG A   2      -6.681 -29.380  32.609  0.00  0.00    +0.255 HD
ATOM     25 HH12 ARG A   2      -6.635 -31.168  32.393  0.00  0.00    +0.255 HD
ATOM     26  HE  ARG A   2      -7.585 -32.522  33.946  0.00  0.00    +0.259 HD
ENDBRANCH  17  18
ENDBRANCH  16  17
ENDBRANCH  15  16
ENDBRANCH   1  15
TORSDOF 10
REMARK  Name = ../refined-set-2016/1d3d/1d3d_pocket.pdb
REMARK  228 active torsions:
REMARK  status: ('A' for Active; 'I' for Inactive)
REMARK    1  A    between atoms: _1  and  _5
REMARK    2  A    between atoms: _5  and  _6
REMARK    3  A    between atoms: _5  and  _8
REMARK    4  A    between atoms: _8  and  _9
REMARK    5  A    between atoms: _12  and  _14
REMARK    6  A    between atoms: _14  and  _15
REMARK    7  A    between atoms: _14  and  _17
REMARK    8  A    between atoms: _20  and  _22
REMARK    9  A    between atoms: _22  and  _23
REMARK   10  A    between atoms: _22  and  _25
REMARK   11  A    between atoms: _25  and  _26
REMARK   12  A    between atoms: _29  and  _31
REMARK   13  A    between atoms: _31  and  _32
REMARK   14  A    between atoms: _31  and  _34
REMARK   15  A    between atoms: _34  and  _35
REMARK   16  A    between atoms: _35  and  _65
REMARK   17  A    between atoms: _36  and  _38
REMARK   18  A    between atoms: _38  and  _39
REMARK   19  A    between atoms: _42  and  _44
REMARK   20  A    between atoms: _44  and  _45
REMARK   21  A    between atoms: _48  and  _50
REMARK   22  A    between atoms: _50  and  _51
REMARK   23  A    between atoms: _50  and  _53
REMARK   24  A    between atoms: _53  and  _54
REMARK   25  A    between atoms: _59  and  _61
REMARK   26  A    between atoms: _61  and  _62
REMARK   27  A    between atoms: _61  and  _64
REMARK   28  A    between atoms: _64  and  _65
REMARK   29  A    between atoms: _66  and  _68
REMARK   30  A    between atoms: _68  and  _69
REMARK   31  A    between atoms: _68  and  _71
REMARK   32  A    between atoms: _71  and  _72
REMARK   33  A    between atoms: _75  and  _77
REMARK   34  A    between atoms: _77  and  _78
REMARK   35  A    between atoms: _77  and  _80
REMARK   36  A    between atoms: _80  and  _81
REMARK   37  A    between atoms: _86  and  _87
REMARK   38  A    between atoms: _90  and  _91
REMARK   39  A    between atoms: _97  and  _98
REMARK   40  A    between atoms: _103  and  _105
REMARK   41  A    between atoms: _105  and  _106
REMARK   42  A    between atoms: _105  and  _108
REMARK   43  A    between atoms: _108  and  _109
REMARK   44  A    between atoms: _119  and  _121
REMARK   45  A    between atoms: _121  and  _122
REMARK   46  A    between atoms: _121  and  _124
REMARK   47  A    between atoms: _124  and  _125
REMARK   48  A    between atoms: _128  and  _130
REMARK   49  A    between atoms: _130  and  _131
REMARK   50  A    between atoms: _130  and  _133
REMARK   51  A    between atoms: _133  and  _134
REMARK   52  A    between atoms: _134  and  _135
REMARK   53  A    between atoms: _135  and  _136
REMARK   54  A    between atoms: _136  and  _137
REMARK   55  A    between atoms: _141  and  _143
REMARK   56  A    between atoms: _143  and  _144
REMARK   57  A    between atoms: _143  and  _146
REMARK   58  A    between atoms: _146  and  _147
REMARK   59  A    between atoms: _152  and  _153
REMARK   60  A    between atoms: _155  and  _157
REMARK   61  A    between atoms: _157  and  _158
REMARK   62  A    between atoms: _157  and  _160
REMARK   63  A    between atoms: _160  and  _161
REMARK   64  A    between atoms: _166  and  _168
REMARK   65  A    between atoms: _168  and  _169
REMARK   66  A    between atoms: _168  and  _171
REMARK   67  A    between atoms: _171  and  _172
REMARK   68  A    between atoms: _182  and  _184
REMARK   69  A    between atoms: _184  and  _185
REMARK   70  A    between atoms: _184  and  _187
REMARK   71  A    between atoms: _187  and  _188
REMARK   72  A    between atoms: _188  and  _189
REMARK   73  A    between atoms: _189  and  _190
REMARK   74  A    between atoms: _199  and  _201
REMARK   75  A    between atoms: _201  and  _202
REMARK   76  A    between atoms: _201  and  _204
REMARK   77  A    between atoms: _204  and  _205
REMARK   78  A    between atoms: _205  and  _206
REMARK   79  A    between atoms: _209  and  _211
REMARK   80  A    between atoms: _211  and  _212
REMARK   81  A    between atoms: _211  and  _214
REMARK   82  A    between atoms: _214  and  _215
REMARK   83  A    between atoms: _220  and  _222
REMARK   84  A    between atoms: _222  and  _223
REMARK   85  A    between atoms: _222  and  _225
REMARK   86  A    between atoms: _225  and  _226
REMARK   87  A    between atoms: _229  and  _231
REMARK   88  A    between atoms: _231  and  _232
REMARK   89  A    between atoms: _231  and  _234
REMARK   90  A    between atoms: _234  and  _235
REMARK   91  A    between atoms: _238  and  _240
REMARK   92  A    between atoms: _240  and  _241
REMARK   93  A    between atoms: _240  and  _243
REMARK   94  A    between atoms: _243  and  _244
REMARK   95  A    between atoms: _247  and  _249
REMARK   96  A    between atoms: _249  and  _250
REMARK   97  A    between atoms: _249  and  _252
REMARK   98  A    between atoms: _255  and  _257
REMARK   99  A    between atoms: _257  and  _258
REMARK  100  A    between atoms: _257  and  _260
REMARK  101  A    between atoms: _260  and  _261
REMARK  102  A    between atoms: _266  and  _268
REMARK  103  A    between atoms: _268  and  _269
REMARK  104  A    between atoms: _268  and  _271
REMARK  105  A    between atoms: _271  and  _272
REMARK  106  A    between atoms: _272  and  _273
REMARK  107  A    between atoms: _276  and  _278
REMARK  108  A    between atoms: _278  and  _279
REMARK  109  A    between atoms: _278  and  _281
REMARK  110  A    between atoms: _281  and  _282
REMARK  111  A    between atoms: _285  and  _287
REMARK  112  A    between atoms: _287  and  _288
REMARK  113  A    between atoms: _287  and  _290
REMARK  114  A    between atoms: _290  and  _291
REMARK  115  A    between atoms: _294  and  _296
REMARK  116  A    between atoms: _296  and  _297
REMARK  117  A    between atoms: _296  and  _299
REMARK  118  A    between atoms: _299  and  _300
REMARK  119  A    between atoms: _303  and  _305
REMARK  120  A    between atoms: _305  and  _306
REMARK  121  A    between atoms: _305  and  _308
REMARK  122  A    between atoms: _308  and  _309
REMARK  123  A    between atoms: _309  and  _310
REMARK  124  A    between atoms: _310  and  _311
REMARK  125  A    between atoms: _320  and  _322
REMARK  126  A    between atoms: _322  and  _323
REMARK  127  A    between atoms: _322  and  _325
REMARK  128  A    between atoms: _325  and  _326
REMARK  129  A    between atoms: _326  and  _327
REMARK  130  A    between atoms: _329  and  _331
REMARK  131  A    between atoms: _331  and  _332
REMARK  132  A    between atoms: _335  and  _337
REMARK  133  A    between atoms: _337  and  _338
REMARK  134  A    between atoms: _340  and  _342
REMARK  135  A    between atoms: _342  and  _343
REMARK  136  A    between atoms: _342  and  _345
REMARK  137  A    between atoms: _345  and  _346
REMARK  138  A    between atoms: _349  and  _351
REMARK  139  A    between atoms: _351  and  _352
REMARK  140  A    between atoms: _355  and  _357
REMARK  141  A    between atoms: _357  and  _358
REMARK  142  A    between atoms: _357  and  _360
REMARK  143  A    between atoms: _360  and  _361
REMARK  144  A    between atoms: _361  and  _471
REMARK  145  A    between atoms: _362  and  _364
REMARK  146  A    between atoms: _364  and  _365
REMARK  147  A    between atoms: _364  and  _367
REMARK  148  A    between atoms: _367  and  _368
REMARK  149  A    between atoms: _368  and  _369
REMARK  150  A    between atoms: _372  and  _374
REMARK  151  A    between atoms: _374  and  _375
REMARK  152  A    between atoms: _377  and  _379
REMARK  153  A    between atoms: _379  and  _380
REMARK  154  A    between atoms: _379  and  _382
REMARK  155  A    between atoms: _382  and  _383
REMARK  156  A    between atoms: _386  and  _388
REMARK  157  A    between atoms: _388  and  _389
REMARK  158  A    between atoms: _388  and  _391
REMARK  159  A    between atoms: _391  and  _392
REMARK  160  A    between atoms: _394  and  _396
REMARK  161  A    between atoms: _396  and  _397
REMARK  162  A    between atoms: _399  and  _401
REMARK  163  A    between atoms: _401  and  _402
REMARK  164  A    between atoms: _404  and  _406
REMARK  165  A    between atoms: _406  and  _407
REMARK  166  A    between atoms: _406  and  _409
REMARK  167  A    between atoms: _409  and  _410
REMARK  168  A    between atoms: _413  and  _415
REMARK  169  A    between atoms: _415  and  _416
REMARK  170  A    between atoms: _415  and  _418
REMARK  171  A    between atoms: _421  and  _423
REMARK  172  A    between atoms: _423  and  _424
REMARK  173  A    between atoms: _423  and  _426
REMARK  174  A    between atoms: _426  and  _427
REMARK  175  A    between atoms: _429  and  _431
REMARK  176  A    between atoms: _431  and  _432
REMARK  177  A    between atoms: _431  and  _434
REMARK  178  A    between atoms: _434  and  _435
REMARK  179  A    between atoms: _445  and  _447
REMARK  180  A    between atoms: _447  and  _448
REMARK  181  A    between atoms: _450  and  _452
REMARK  182  A    between atoms: _452  and  _453
REMARK  183  A    between atoms: _452  and  _455
REMARK  184  A    between atoms: _455  and  _456
REMARK  185  A    between atoms: _456  and  _457
REMARK  186  A    between atoms: _460  and  _462
REMARK  187  A    between atoms: _462  and  _463
REMARK  188  A    between atoms: _465  and  _467
REMARK  189  A    between atoms: _467  and  _468
REMARK  190  A    between atoms: _467  and  _470
REMARK  191  A    between atoms: _470  and  _471
REMARK  192  A    between atoms: _472  and  _474
REMARK  193  A    between atoms: _474  and  _475
REMARK  194  A    between atoms: _474  and  _477
REMARK  195  A    between atoms: _477  and  _478
REMARK  196  A    between atoms: _481  and  _483
REMARK  197  A    between atoms: _483  and  _484
REMARK  198  A    between atoms: _483  and  _486
REMARK  199  A    between atoms: _486  and  _487
REMARK  200  A    between atoms: _487  and  _488
REMARK  201  A    between atoms: _488  and  _489
REMARK  202  A    between atoms: _498  and  _500
REMARK  203  A    between atoms: _500  and  _501
REMARK  204  A    between atoms: _500  and  _503
REMARK  205  A    between atoms: _503  and  _504
REMARK  206  A    between atoms: _504  and  _505
REMARK  207  A    between atoms: _505  and  _506
REMARK  208  A    between atoms: _506  and  _507
REMARK  209  A    between atoms: _511  and  _513
REMARK  210  A    between atoms: _513  and  _514
REMARK  211  A    between atoms: _513  and  _516
REMARK  212  A    between atoms: _516  and  _517
REMARK  213  A    between atoms: _522  and  _523
REMARK  214  A    between atoms: _525  and  _527
REMARK  215  A    between atoms: _527  and  _528
REMARK  216  A    between atoms: _530  and  _532
REMARK  217  A    between atoms: _532  and  _533
REMARK  218  A    between atoms: _532  and  _535
REMARK  219  A    between atoms: _535  and  _536
REMARK  220  A    between atoms: _542  and  _544
REMARK  221  A    between atoms: _544  and  _545
REMARK  222  A    between atoms: _544  and  _547
REMARK  223  A    between atoms: _547  and  _548
REMARK  224  A    between atoms: _553  and  _554
REMARK  225  A    between atoms: _556  and  _558
REMARK  226  A    between atoms: _558  and  _559
REMARK  227  A    between atoms: _558  and  _561
REMARK  228  A    between atoms: _561  and  _562
REMARK                            x       y       z     vdW  Elec       q    Type
REMARK                         _______ _______ _______ _____ _____    ______ ____
ROOT
ATOM      1  CA  MET A   1     -16.436 -24.126  31.543  0.00  0.00    +0.134 C 
ENDROOT
BRANCH   1   2
ATOM      2  N   MET A   1     -15.187 -23.535  32.028  0.00  0.00    -0.239 NA
ATOM      3  H   MET A   1     -14.885 -23.720  33.006  0.00  0.00    +0.142 HD
ENDBRANCH   1   2
BRANCH   1   4
ATOM      4  C   MET A   1     -17.505 -24.024  32.592  0.00  0.00    +0.224 C 
ATOM      5  O   MET A   1     -17.202 -23.841  33.777  0.00  0.00    -0.287 OA
ENDBRANCH   1   4
BRANCH   1   6
ATOM      6  CB  MET A   1     -16.301 -25.627  31.238  0.00  0.00    +0.037 C 
BRANCH   6   7
ATOM      7  CG  MET A   1     -14.914 -26.155  31.045  0.00  0.00    +0.059 C 
BRANCH   7   8
ATOM      8  SD  MET A   1     -14.859 -27.968  31.188  0.00  0.00    -0.139 S 
ATOM      9  CE  MET A   1     -13.350 -28.234  30.375  0.00  0.00    +0.069 C 
ENDBRANCH   7   8
ENDBRANCH   6   7
ENDBRANCH   1   6
TORSDOF 5
REMARK  Name = ../refined-set-2016/1d3d/1d3d_pocket.pdb
REMARK  228 active torsions:
REMARK  status: ('A' for Active; 'I' for Inactive)
REMARK    1  A    between atoms: _1  and  _5
REMARK    2  A    between atoms: _5  and  _6
REMARK    3  A    between atoms: _5  and  _8
REMARK    4  A    between atoms: _8  and  _9
REMARK    5  A    between atoms: _12  and  _14
REMARK    6  A    between atoms: _14  and  _15
REMARK    7  A    between atoms: _14  and  _17
REMARK    8  A    between atoms: _20  and  _22
REMARK    9  A    between atoms: _22  and  _23
REMARK   10  A    between atoms: _22  and  _25
REMARK   11  A    between atoms: _25  and  _26
REMARK   12  A    between atoms: _29  and  _31
REMARK   13  A    between atoms: _31  and  _32
REMARK   14  A    between atoms: _31  and  _34
REMARK   15  A    between atoms: _34  and  _35
REMARK   16  A    between atoms: _35  and  _65
REMARK   17  A    between atoms: _36  and  _38
REMARK   18  A    between atoms: _38  and  _39
REMARK   19  A    between atoms: _42  and  _44
REMARK   20  A    between atoms: _44  and  _45
REMARK   21  A    between atoms: _48  and  _50
REMARK   22  A    between atoms: _50  and  _51
REMARK   23  A    between atoms: _50  and  _53
REMARK   24  A    between atoms: _53  and  _54
REMARK   25  A    between atoms: _59  and  _61
REMARK   26  A    between atoms: _61  and  _62
REMARK   27  A    between atoms: _61  and  _64
REMARK   28  A    between atoms: _64  and  _65
REMARK   29  A    between atoms: _66  and  _68
REMARK   30  A    between atoms: _68  and  _69
REMARK   31  A    between atoms: _68  and  _71
REMARK   32  A    between atoms: _71  and  _72
REMARK   33  A    between atoms: _75  and  _77
REMARK   34  A    between atoms: _77  and  _78
REMARK   35  A    between atoms: _77  and  _80
REMARK   36  A    between atoms: _80  and  _81
REMARK   37  A    between atoms: _86  and  _87
REMARK   38  A    between atoms: _90  and  _91
REMARK   39  A    between atoms: _97  and  _98
REMARK   40  A    between atoms: _103  and  _105
REMARK   41  A    between atoms: _105  and  _106
REMARK   42  A    between atoms: _105  and  _108
REMARK   43  A    between atoms: _108  and  _109
REMARK   44  A    between atoms: _119  and  _121
REMARK   45  A    between atoms: _121  and  _122
REMARK   46  A    between atoms: _121  and  _124
REMARK   47  A    between atoms: _124  and  _125
REMARK   48  A    between atoms: _128  and  _130
REMARK   49  A    between atoms: _130  and  _131
REMARK   50  A    between atoms: _130  and  _133
REMARK   51  A    between atoms: _133  and  _134
REMARK   52  A    between atoms: _134  and  _135
REMARK   53  A    between atoms: _135  and  _136
REMARK   54  A    between atoms: _136  and  _137
REMARK   55  A    between atoms: _141  and  _143
REMARK   56  A    between atoms: _143  and  _144
REMARK   57  A    between atoms: _143  and  _146
REMARK   58  A    between atoms: _146  and  _147
REMARK   59  A    between atoms: _152  and  _153
REMARK   60  A    between atoms: _155  and  _157
REMARK   61  A    between atoms: _157  and  _158
REMARK   62  A    between atoms: _157  and  _160
REMARK   63  A    between atoms: _160  and  _161
REMARK   64  A    between atoms: _166  and  _168
REMARK   65  A    between atoms: _168  and  _169
REMARK   66  A    between atoms: _168  and  _171
REMARK   67  A    between atoms: _171  and  _172
REMARK   68  A    between atoms: _182  and  _184
REMARK   69  A    between atoms: _184  and  _185
REMARK   70  A    between atoms: _184  and  _187
REMARK   71  A    between atoms: _187  and  _188
REMARK   72  A    between atoms: _188  and  _189
REMARK   73  A    between atoms: _189  and  _190
REMARK   74  A    between atoms: _199  and  _201
REMARK   75  A    between atoms: _201  and  _202
REMARK   76  A    between atoms: _201  and  _204
REMARK   77  A    between atoms: _204  and  _205
REMARK   78  A    between atoms: _205  and  _206
REMARK   79  A    between atoms: _209  and  _211
REMARK   80  A    between atoms: _211  and  _212
REMARK   81  A    between atoms: _211  and  _214
REMARK   82  A    between atoms: _214  and  _215
REMARK   83  A    between atoms: _220  and  _222
REMARK   84  A    between atoms: _222  and  _223
REMARK   85  A    between atoms: _222  and  _225
REMARK   86  A    between atoms: _225  and  _226
REMARK   87  A    between atoms: _229  and  _231
REMARK   88  A    between atoms: _231  and  _232
REMARK   89  A    between atoms: _231  and  _234
REMARK   90  A    between atoms: _234  and  _235
REMARK   91  A    between atoms: _238  and  _240
REMARK   92  A    between atoms: _240  and  _241
REMARK   93  A    between atoms: _240  and  _243
REMARK   94  A    between atoms: _243  and  _244
REMARK   95  A    between atoms: _247  and  _249
REMARK   96  A    between atoms: _249  and  _250
REMARK   97  A    between atoms: _249  and  _252
REMARK   98  A    between atoms: _255  and  _257
REMARK   99  A    between atoms: _257  and  _258
REMARK  100  A    between atoms: _257  and  _260
REMARK  101  A    between atoms: _260  and  _261
REMARK  102  A    between atoms: _266  and  _268
REMARK  103  A    between atoms: _268  and  _269
REMARK  104  A    between atoms: _268  and  _271
REMARK  105  A    between atoms: _271  and  _272
REMARK  106  A    between atoms: _272  and  _273
REMARK  107  A    between atoms: _276  and  _278
REMARK  108  A    between atoms: _278  and  _279
REMARK  109  A    between atoms: _278  and  _281
REMARK  110  A    between atoms: _281  and  _282
REMARK  111  A    between atoms: _285  and  _287
REMARK  112  A    between atoms: _287  and  _288
REMARK  113  A    between atoms: _287  and  _290
REMARK  114  A    between atoms: _290  and  _291
REMARK  115  A    between atoms: _294  and  _296
REMARK  116  A    between atoms: _296  and  _297
REMARK  117  A    between atoms: _296  and  _299
REMARK  118  A    between atoms: _299  and  _300
REMARK  119  A    between atoms: _303  and  _305
REMARK  120  A    between atoms: _305  and  _306
REMARK  121  A    between atoms: _305  and  _308
REMARK  122  A    between atoms: _308  and  _309
REMARK  123  A    between atoms: _309  and  _310
REMARK  124  A    between atoms: _310  and  _311
REMARK  125  A    between atoms: _320  and  _322
REMARK  126  A    between atoms: _322  and  _323
REMARK  127  A    between atoms: _322  and  _325
REMARK  128  A    between atoms: _325  and  _326
REMARK  129  A    between atoms: _326  and  _327
REMARK  130  A    between atoms: _329  and  _331
REMARK  131  A    between atoms: _331  and  _332
REMARK  132  A    between atoms: _335  and  _337
REMARK  133  A    between atoms: _337  and  _338
REMARK  134  A    between atoms: _340  and  _342
REMARK  135  A    between atoms: _342  and  _343
REMARK  136  A    between atoms: _342  and  _345
REMARK  137  A    between atoms: _345  and  _346
REMARK  138  A    between atoms: _349  and  _351
REMARK  139  A    between atoms: _351  and  _352
REMARK  140  A    between atoms: _355  and  _357
REMARK  141  A    between atoms: _357  and  _358
REMARK  142  A    between atoms: _357  and  _360
REMARK  143  A    between atoms: _360  and  _361
REMARK  144  A    between atoms: _361  and  _471
REMARK  145  A    between atoms: _362  and  _364
REMARK  146  A    between atoms: _364  and  _365
REMARK  147  A    between atoms: _364  and  _367
REMARK  148  A    between atoms: _367  and  _368
REMARK  149  A    between atoms: _368  and  _369
REMARK  150  A    between atoms: _372  and  _374
REMARK  151  A    between atoms: _374  and  _375
REMARK  152  A    between atoms: _377  and  _379
REMARK  153  A    between atoms: _379  and  _380
REMARK  154  A    between atoms: _379  and  _382
REMARK  155  A    between atoms: _382  and  _383
REMARK  156  A    between atoms: _386  and  _388
REMARK  157  A    between atoms: _388  and  _389
REMARK  158  A    between atoms: _388  and  _391
REMARK  159  A    between atoms: _391  and  _392
REMARK  160  A    between atoms: _394  and  _396
REMARK  161  A    between atoms: _396  and  _397
REMARK  162  A    between atoms: _399  and  _401
REMARK  163  A    between atoms: _401  and  _402
REMARK  164  A    between atoms: _404  and  _406
REMARK  165  A    between atoms: _406  and  _407
REMARK  166  A    between atoms: _406  and  _409
REMARK  167  A    between atoms: _409  and  _410
REMARK  168  A    between atoms: _413  and  _415
REMARK  169  A    between atoms: _415  and  _416
REMARK  170  A    between atoms: _415  and  _418
REMARK  171  A    between atoms: _421  and  _423
REMARK  172  A    between atoms: _423  and  _424
REMARK  173  A    between atoms: _423  and  _426
REMARK  174  A    between atoms: _426  and  _427
REMARK  175  A    between atoms: _429  and  _431
REMARK  176  A    between atoms: _431  and  _432
REMARK  177  A    between atoms: _431  and  _434
REMARK  178  A    between atoms: _434  and  _435
REMARK  179  A    between atoms: _445  and  _447
REMARK  180  A    between atoms: _447  and  _448
REMARK  181  A    between atoms: _450  and  _452
REMARK  182  A    between atoms: _452  and  _453
REMARK  183  A    between atoms: _452  and  _455
REMARK  184  A    between atoms: _455  and  _456
REMARK  185  A    between atoms: _456  and  _457
REMARK  186  A    between atoms: _460  and  _462
REMARK  187  A    between atoms: _462  and  _463
REMARK  188  A    between atoms: _465  and  _467
REMARK  189  A    between atoms: _467  and  _468
REMARK  190  A    between atoms: _467  and  _470
REMARK  191  A    between atoms: _470  and  _471
REMARK  192  A    between atoms: _472  and  _474
REMARK  193  A    between atoms: _474  and  _475
REMARK  194  A    between atoms: _474  and  _477
REMARK  195  A    between atoms: _477  and  _478
REMARK  196  A    between atoms: _481  and  _483
REMARK  197  A    between atoms: _483  and  _484
REMARK  198  A    between atoms: _483  and  _486
REMARK  199  A    between atoms: _486  and  _487
REMARK  200  A    between atoms: _487  and  _488
REMARK  201  A    between atoms: _488  and  _489
REMARK  202  A    between atoms: _498  and  _500
REMARK  203  A    between atoms: _500  and  _501
REMARK  204  A    between atoms: _500  and  _503
REMARK  205  A    between atoms: _503  and  _504
REMARK  206  A    between atoms: _504  and  _505
REMARK  207  A    between atoms: _505  and  _506
REMARK  208  A    between atoms: _506  and  _507
REMARK  209  A    between atoms: _511  and  _513
REMARK  210  A    between atoms: _513  and  _514
REMARK  211  A    between atoms: _513  and  _516
REMARK  212  A    between atoms: _516  and  _517
REMARK  213  A    between atoms: _522  and  _523
REMARK  214  A    between atoms: _525  and  _527
REMARK  215  A    between atoms: _527  and  _528
REMARK  216  A    between atoms: _530  and  _532
REMARK  217  A    between atoms: _532  and  _533
REMARK  218  A    between atoms: _532  and  _535
REMARK  219  A    between atoms: _535  and  _536
REMARK  220  A    between atoms: _542  and  _544
REMARK  221  A    between atoms: _544  and  _545
REMARK  222  A    between atoms: _544  and  _547
REMARK  223  A    between atoms: _547  and  _548
REMARK  224  A    between atoms: _553  and  _554
REMARK  225  A    between atoms: _556  and  _558
REMARK  226  A    between atoms: _558  and  _559
REMARK  227  A    between atoms: _558  and  _561
REMARK  228  A    between atoms: _561  and  _562
REMARK                            x       y       z     vdW  Elec       q    Type
REMARK                         _______ _______ _______ _____ _____    ______ ____
ROOT
ATOM      1  CA  ALA A   1     -26.392 -26.266  31.850  0.00  0.00    +0.133 C 
ATOM      2  CB  ALA A   1     -26.567 -25.034  30.962  0.00  0.00    +0.027 C 
ENDROOT
BRANCH   1   3
ATOM      3  N   ALA A   1     -25.009 -26.704  31.806  0.00  0.00    -0.239 NA
ATOM      4  H   ALA A   1     -24.725 -27.443  31.132  0.00  0.00    +0.142 HD
ENDBRANCH   1   3
BRANCH   1   5
ATOM      5  C   ALA A   1     -27.353 -27.366  31.410  0.00  0.00    +0.224 C 
ATOM      6  O   ALA A   1     -26.989 -28.273  30.664  0.00  0.00    -0.287 OA
ENDBRANCH   1   5
TORSDOF 2
REMARK  Name = ../refined-set-2016/1d3d/1d3d_pocket.pdb
REMARK  228 active torsions:
REMARK  status: ('A' for Active; 'I' for Inactive)
REMARK    1  A    between atoms: _1  and  _5
REMARK    2  A    between atoms: _5  and  _6
REMARK    3  A    between atoms: _5  and  _8
REMARK    4  A    between atoms: _8  and  _9
REMARK    5  A    between atoms: _12  and  _14
REMARK    6  A    between atoms: _14  and  _15
REMARK    7  A    between atoms: _14  and  _17
REMARK    8  A    between atoms: _20  and  _22
REMARK    9  A    between atoms: _22  and  _23
REMARK   10  A    between atoms: _22  and  _25
REMARK   11  A    between atoms: _25  and  _26
REMARK   12  A    between atoms: _29  and  _31
REMARK   13  A    between atoms: _31  and  _32
REMARK   14  A    between atoms: _31  and  _34
REMARK   15  A    between atoms: _34  and  _35
REMARK   16  A    between atoms: _35  and  _65
REMARK   17  A    between atoms: _36  and  _38
REMARK   18  A    between atoms: _38  and  _39
REMARK   19  A    between atoms: _42  and  _44
REMARK   20  A    between atoms: _44  and  _45
REMARK   21  A    between atoms: _48  and  _50
REMARK   22  A    between atoms: _50  and  _51
REMARK   23  A    between atoms: _50  and  _53
REMARK   24  A    between atoms: _53  and  _54
REMARK   25  A    between atoms: _59  and  _61
REMARK   26  A    between atoms: _61  and  _62
REMARK   27  A    between atoms: _61  and  _64
REMARK   28  A    between atoms: _64  and  _65
REMARK   29  A    between atoms: _66  and  _68
REMARK   30  A    between atoms: _68  and  _69
REMARK   31  A    between atoms: _68  and  _71
REMARK   32  A    between atoms: _71  and  _72
REMARK   33  A    between atoms: _75  and  _77
REMARK   34  A    between atoms: _77  and  _78
REMARK   35  A    between atoms: _77  and  _80
REMARK   36  A    between atoms: _80  and  _81
REMARK   37  A    between atoms: _86  and  _87
REMARK   38  A    between atoms: _90  and  _91
REMARK   39  A    between atoms: _97  and  _98
REMARK   40  A    between atoms: _103  and  _105
REMARK   41  A    between atoms: _105  and  _106
REMARK   42  A    between atoms: _105  and  _108
REMARK   43  A    between atoms: _108  and  _109
REMARK   44  A    between atoms: _119  and  _121
REMARK   45  A    between atoms: _121  and  _122
REMARK   46  A    between atoms: _121  and  _124
REMARK   47  A    between atoms: _124  and  _125
REMARK   48  A    between atoms: _128  and  _130
REMARK   49  A    between atoms: _130  and  _131
REMARK   50  A    between atoms: _130  and  _133
REMARK   51  A    between atoms: _133  and  _134
REMARK   52  A    between atoms: _134  and  _135
REMARK   53  A    between atoms: _135  and  _136
REMARK   54  A    between atoms: _136  and  _137
REMARK   55  A    between atoms: _141  and  _143
REMARK   56  A    between atoms: _143  and  _144
REMARK   57  A    between atoms: _143  and  _146
REMARK   58  A    between atoms: _146  and  _147
REMARK   59  A    between atoms: _152  and  _153
REMARK   60  A    between atoms: _155  and  _157
REMARK   61  A    between atoms: _157  and  _158
REMARK   62  A    between atoms: _157  and  _160
REMARK   63  A    between atoms: _160  and  _161
REMARK   64  A    between atoms: _166  and  _168
REMARK   65  A    between atoms: _168  and  _169
REMARK   66  A    between atoms: _168  and  _171
REMARK   67  A    between atoms: _171  and  _172
REMARK   68  A    between atoms: _182  and  _184
REMARK   69  A    between atoms: _184  and  _185
REMARK   70  A    between atoms: _184  and  _187
REMARK   71  A    between atoms: _187  and  _188
REMARK   72  A    between atoms: _188  and  _189
REMARK   73  A    between atoms: _189  and  _190
REMARK   74  A    between atoms: _199  and  _201
REMARK   75  A    between atoms: _201  and  _202
REMARK   76  A    between atoms: _201  and  _204
REMARK   77  A    between atoms: _204  and  _205
REMARK   78  A    between atoms: _205  and  _206
REMARK   79  A    between atoms: _209  and  _211
REMARK   80  A    between atoms: _211  and  _212
REMARK   81  A    between atoms: _211  and  _214
REMARK   82  A    between atoms: _214  and  _215
REMARK   83  A    between atoms: _220  and  _222
REMARK   84  A    between atoms: _222  and  _223
REMARK   85  A    between atoms: _222  and  _225
REMARK   86  A    between atoms: _225  and  _226
REMARK   87  A    between atoms: _229  and  _231
REMARK   88  A    between atoms: _231  and  _232
REMARK   89  A    between atoms: _231  and  _234
REMARK   90  A    between atoms: _234  and  _235
REMARK   91  A    between atoms: _238  and  _240
REMARK   92  A    between atoms: _240  and  _241
REMARK   93  A    between atoms: _240  and  _243
REMARK   94  A    between atoms: _243  and  _244
REMARK   95  A    between atoms: _247  and  _249
REMARK   96  A    between atoms: _249  and  _250
REMARK   97  A    between atoms: _249  and  _252
REMARK   98  A    between atoms: _255  and  _257
REMARK   99  A    between atoms: _257  and  _258
REMARK  100  A    between atoms: _257  and  _260
REMARK  101  A    between atoms: _260  and  _261
REMARK  102  A    between atoms: _266  and  _268
REMARK  103  A    between atoms: _268  and  _269
REMARK  104  A    between atoms: _268  and  _271
REMARK  105  A    between atoms: _271  and  _272
REMARK  106  A    between atoms: _272  and  _273
REMARK  107  A    between atoms: _276  and  _278
REMARK  108  A    between atoms: _278  and  _279
REMARK  109  A    between atoms: _278  and  _281
REMARK  110  A    between atoms: _281  and  _282
REMARK  111  A    between atoms: _285  and  _287
REMARK  112  A    between atoms: _287  and  _288
REMARK  113  A    between atoms: _287  and  _290
REMARK  114  A    between atoms: _290  and  _291
REMARK  115  A    between atoms: _294  and  _296
REMARK  116  A    between atoms: _296  and  _297
REMARK  117  A    between atoms: _296  and  _299
REMARK  118  A    between atoms: _299  and  _300
REMARK  119  A    between atoms: _303  and  _305
REMARK  120  A    between atoms: _305  and  _306
REMARK  121  A    between atoms: _305  and  _308
REMARK  122  A    between atoms: _308  and  _309
REMARK  123  A    between atoms: _309  and  _310
REMARK  124  A    between atoms: _310  and  _311
REMARK  125  A    between atoms: _320  and  _322
REMARK  126  A    between atoms: _322  and  _323
REMARK  127  A    between atoms: _322  and  _325
REMARK  128  A    between atoms: _325  and  _326
REMARK  129  A    between atoms: _326  and  _327
REMARK  130  A    between atoms: _329  and  _331
REMARK  131  A    between atoms: _331  and  _332
REMARK  132  A    between atoms: _335  and  _337
REMARK  133  A    between atoms: _337  and  _338
REMARK  134  A    between atoms: _340  and  _342
REMARK  135  A    between atoms: _342  and  _343
REMARK  136  A    between atoms: _342  and  _345
REMARK  137  A    between atoms: _345  and  _346
REMARK  138  A    between atoms: _349  and  _351
REMARK  139  A    between atoms: _351  and  _352
REMARK  140  A    between atoms: _355  and  _357
REMARK  141  A    between atoms: _357  and  _358
REMARK  142  A    between atoms: _357  and  _360
REMARK  143  A    between atoms: _360  and  _361
REMARK  144  A    between atoms: _361  and  _471
REMARK  145  A    between atoms: _362  and  _364
REMARK  146  A    between atoms: _364  and  _365
REMARK  147  A    between atoms: _364  and  _367
REMARK  148  A    between atoms: _367  and  _368
REMARK  149  A    between atoms: _368  and  _369
REMARK  150  A    between atoms: _372  and  _374
REMARK  151  A    between atoms: _374  and  _375
REMARK  152  A    between atoms: _377  and  _379
REMARK  153  A    between atoms: _379  and  _380
REMARK  154  A    between atoms: _379  and  _382
REMARK  155  A    between atoms: _382  and  _383
REMARK  156  A    between atoms: _386  and  _388
REMARK  157  A    between atoms: _388  and  _389
REMARK  158  A    between atoms: _388  and  _391
REMARK  159  A    between atoms: _391  and  _392
REMARK  160  A    between atoms: _394  and  _396
REMARK  161  A    between atoms: _396  and  _397
REMARK  162  A    between atoms: _399  and  _401
REMARK  163  A    between atoms: _401  and  _402
REMARK  164  A    between atoms: _404  and  _406
REMARK  165  A    between atoms: _406  and  _407
REMARK  166  A    between atoms: _406  and  _409
REMARK  167  A    between atoms: _409  and  _410
REMARK  168  A    between atoms: _413  and  _415
REMARK  169  A    between atoms: _415  and  _416
REMARK  170  A    between atoms: _415  and  _418
REMARK  171  A    between atoms: _421  and  _423
REMARK  172  A    between atoms: _423  and  _424
REMARK  173  A    between atoms: _423  and  _426
REMARK  174  A    between atoms: _426  and  _427
REMARK  175  A    between atoms: _429  and  _431
REMARK  176  A    between atoms: _431  and  _432
REMARK  177  A    between atoms: _431  and  _434
REMARK  178  A    between atoms: _434  and  _435
REMARK  179  A    between atoms: _445  and  _447
REMARK  180  A    between atoms: _447  and  _448
REMARK  181  A    between atoms: _450  and  _452
REMARK  182  A    between atoms: _452  and  _453
REMARK  183  A    between atoms: _452  and  _455
REMARK  184  A    between atoms: _455  and  _456
REMARK  185  A    between atoms: _456  and  _457
REMARK  186  A    between atoms: _460  and  _462
REMARK  187  A    between atoms: _462  and  _463
REMARK  188  A    between atoms: _465  and  _467
REMARK  189  A    between atoms: _467  and  _468
REMARK  190  A    between atoms: _467  and  _470
REMARK  191  A    between atoms: _470  and  _471
REMARK  192  A    between atoms: _472  and  _474
REMARK  193  A    between atoms: _474  and  _475
REMARK  194  A    between atoms: _474  and  _477
REMARK  195  A    between atoms: _477  and  _478
REMARK  196  A    between atoms: _481  and  _483
REMARK  197  A    between atoms: _483  and  _484
REMARK  198  A    between atoms: _483  and  _486
REMARK  199  A    between atoms: _486  and  _487
REMARK  200  A    between atoms: _487  and  _488
REMARK  201  A    between atoms: _488  and  _489
REMARK  202  A    between atoms: _498  and  _500
REMARK  203  A    between atoms: _500  and  _501
REMARK  204  A    between atoms: _500  and  _503
REMARK  205  A    between atoms: _503  and  _504
REMARK  206  A    between atoms: _504  and  _505
REMARK  207  A    between atoms: _505  and  _506
REMARK  208  A    between atoms: _506  and  _507
REMARK  209  A    between atoms: _511  and  _513
REMARK  210  A    between atoms: _513  and  _514
REMARK  211  A    between atoms: _513  and  _516
REMARK  212  A    between atoms: _516  and  _517
REMARK  213  A    between atoms: _522  and  _523
REMARK  214  A    between atoms: _525  and  _527
REMARK  215  A    between atoms: _527  and  _528
REMARK  216  A    between atoms: _530  and  _532
REMARK  217  A    between atoms: _532  and  _533
REMARK  218  A    between atoms: _532  and  _535
REMARK  219  A    between atoms: _535  and  _536
REMARK  220  A    between atoms: _542  and  _544
REMARK  221  A    between atoms: _544  and  _545
REMARK  222  A    between atoms: _544  and  _547
REMARK  223  A    between atoms: _547  and  _548
REMARK  224  A    between atoms: _553  and  _554
REMARK  225  A    between atoms: _556  and  _558
REMARK  226  A    between atoms: _558  and  _559
REMARK  227  A    between atoms: _558  and  _561
REMARK  228  A    between atoms: _561  and  _562
REMARK                            x       y       z     vdW  Elec       q    Type
REMARK                         _______ _______ _______ _____ _____    ______ ____
ROOT
ATOM      1  CA  SER A   8     -27.772 -35.350  23.904  0.00  0.00    +0.160 C 
ENDROOT
BRANCH   1   2
ATOM      2  N   SER A   8     -26.924 -36.537  24.017  0.00  0.00    -0.296 N 
ATOM      3  C   ASP A   7     -25.600 -36.473  24.139  0.00  0.00    +0.243 C 
ATOM      4  O   ASP A   7     -24.970 -35.405  24.152  0.00  0.00    -0.273 OA
ATOM      5  H   SER A   8     -27.376 -37.473  24.001  0.00  0.00    +0.150 HD
BRANCH   3   6
ATOM      6  CA  ASP A   7     -24.855 -37.800  24.268  0.00  0.00    +0.176 C 
BRANCH   6   7
ATOM      7  N   ASP A   7     -23.523 -37.500  24.762  0.00  0.00    -0.295 N 
ATOM      8  C   GLY A   6     -23.297 -37.362  26.064  0.00  0.00    +0.241 C 
ATOM      9  O   GLY A   6     -24.169 -37.485  26.916  0.00  0.00    -0.273 OA
ATOM     10  H   ASP A   7     -22.737 -37.392  24.089  0.00  0.00    +0.150 HD
BRANCH   8  11
ATOM     11  CA  GLY A   6     -21.875 -36.977  26.440  0.00  0.00    +0.149 C 
BRANCH  11  12
ATOM     12  N   GLY A   6     -21.961 -35.536  26.609  0.00  0.00    -0.297 N 
ATOM     13  H   GLY A   6     -22.566 -35.147  27.360  0.00  0.00    +0.150 HD
ATOM     14  C   GLU A   5     -21.287 -34.711  25.830  0.00  0.00    +0.243 C 
ATOM     15  O   GLU A   5     -20.533 -35.101  24.949  0.00  0.00    -0.273 OA
BRANCH  14  16
ATOM     16  CA  GLU A   5     -21.480 -33.233  26.093  0.00  0.00    +0.176 C 
BRANCH  16  17
ATOM     17  N   GLU A   5     -20.488 -32.509  25.335  0.00  0.00    -0.295 N 
ATOM     18  C   TRP A   4     -20.150 -31.273  25.670  0.00  0.00    +0.241 C 
ATOM     19  O   TRP A   4     -20.687 -30.643  26.589  0.00  0.00    -0.273 OA
ATOM     20  H   GLU A   5     -20.034 -32.963  24.517  0.00  0.00    +0.150 HD
BRANCH  18  21
ATOM     21  CA  TRP A   4     -19.090 -30.656  24.794  0.00  0.00    +0.153 C 
BRANCH  21  22
ATOM     22  N   TRP A   4     -19.086 -29.203  24.829  0.00  0.00    -0.297 N 
ATOM     23  H   TRP A   4     -19.461 -28.689  25.652  0.00  0.00    +0.150 HD
ATOM     24  C   SER A   3     -18.592 -28.549  23.785  0.00  0.00    +0.243 C 
ATOM     25  O   SER A   3     -18.124 -29.134  22.821  0.00  0.00    -0.273 OA
BRANCH  24  26
ATOM     26  CA  SER A   3     -18.598 -27.028  23.818  0.00  0.00    +0.178 C 
BRANCH  26  27
ATOM     27  N   SER A   3     -19.890 -26.363  23.923  0.00  0.00    -0.295 N 
ATOM     28  H   SER A   3     -20.444 -26.437  24.800  0.00  0.00    +0.150 HD
ATOM     29  C   VAL A   2     -20.360 -25.661  22.896  0.00  0.00    +0.241 C 
ATOM     30  O   VAL A   2     -19.786 -25.629  21.794  0.00  0.00    -0.273 OA
BRANCH  29  31
ATOM     31  CA  VAL A   2     -21.672 -24.906  23.128  0.00  0.00    +0.148 C 
BRANCH  31  32
ATOM     32  N   VAL A   2     -21.351 -23.477  23.013  0.00  0.00    -0.297 N 
ATOM     33  C   ILE A   1     -20.400 -22.904  23.765  0.00  0.00    +0.238 C 
ATOM     34  O   ILE A   1     -19.779 -23.515  24.641  0.00  0.00    -0.274 OA
ATOM     35  H   VAL A   2     -21.875 -22.894  22.330  0.00  0.00    +0.150 HD
BRANCH  33  36
ATOM     36  CA  ILE A   1     -20.116 -21.413  23.547  0.00  0.00    +0.145 C 
BRANCH  36  37
ATOM     37  N   ILE A   1     -20.243 -20.810  24.874  0.00  0.00    -0.238 NA
ATOM     38  H   ILE A   1     -19.687 -21.211  25.656  0.00  0.00    +0.142 HD
ENDBRANCH  36  37
BRANCH  36  39
ATOM     39  CB  ILE A   1     -18.694 -21.285  22.979  0.00  0.00    +0.025 C 
ATOM     40  CG2 ILE A   1     -18.581 -22.061  21.672  0.00  0.00    +0.002 C 
BRANCH  39  41
ATOM     41  CG1 ILE A   1     -18.351 -19.818  22.712  0.00  0.00    +0.002 C 
ATOM     42  CD1 ILE A   1     -16.857 -19.579  22.510  0.00  0.00    +0.000 C 
ENDBRANCH  39  41
ENDBRANCH  36  39
ENDBRANCH  33  36
ENDBRANCH  31  32
BRANCH  31  43
ATOM     43  CB  VAL A   2     -22.718 -25.344  22.058  0.00  0.00    +0.027 C 
ATOM     44  CG2 VAL A   2     -23.062 -26.834  22.230  0.00  0.00    +0.002 C 
ATOM     45  CG1 VAL A   2     -23.971 -24.496  22.178  0.00  0.00    +0.002 C 
ENDBRANCH  31  43
ENDBRANCH  29  31
ENDBRANCH  26  27
BRANCH  26  46
ATOM     46  CB  SER A   3     -17.689 -26.535  24.951  0.00  0.00    +0.166 C 
BRANCH  46  47
ATOM     47  OG  SER A   3     -16.410 -27.128  24.867  0.00  0.00    -0.380 OA
ATOM     48  H   SER A   3     -15.994 -26.892  24.000  0.00  0.00    +0.211 HD
ENDBRANCH  46  47
ENDBRANCH  26  46
ENDBRANCH  24  26
ENDBRANCH  21  22
BRANCH  21  49
ATOM     49  CB  TRP A   4     -17.688 -31.230  25.130  0.00  0.00    +0.057 C 
BRANCH  49  50
ATOM     50  CG  TRP A   4     -17.187 -30.964  26.544  0.00  0.00    -0.002 A 
ATOM     51  CD2 TRP A   4     -17.354 -31.809  27.697  0.00  0.00    +0.013 A 
ATOM     52  CE2 TRP A   4     -16.744 -31.151  28.792  0.00  0.00    +0.056 A 
ATOM     53  CZ2 TRP A   4     -16.725 -31.701  30.087  0.00  0.00    +0.017 A 
ATOM     54  CH2 TRP A   4     -17.327 -32.920  30.267  0.00  0.00    +0.001 A 
ATOM     55  CZ3 TRP A   4     -17.941 -33.601  29.199  0.00  0.00    +0.000 A 
ATOM     56  NE1 TRP A   4     -16.230 -29.968  28.327  0.00  0.00    -0.352 N 
ATOM     57  HE1 TRP A   4     -15.721 -29.264  28.898  0.00  0.00    +0.166 HD
ATOM     58  CE3 TRP A   4     -17.960 -33.056  27.911  0.00  0.00    +0.001 A 
ATOM     59  CD1 TRP A   4     -16.498 -29.864  26.979  0.00  0.00    +0.068 A 
ENDBRANCH  49  50
ENDBRANCH  21  49
ENDBRANCH  18  21
ENDBRANCH  16  17
ENDBRANCH  14  16
ENDBRANCH  11  12
BRANCH  11  60
ATOM     60  CB  GLY A   6     -21.403 -37.611  27.756  0.00  0.00    +0.041 C 
BRANCH  60  61
ATOM     61  CG  GLY A   6     -20.003 -37.091  28.143  0.00  0.00    +0.116 C 
BRANCH  61  62
ATOM     62  CD  GLY A   6     -19.570 -37.439  29.563  0.00  0.00    +0.365 C 
ATOM     63  OE2 GLY A   6     -20.288 -37.109  30.526  0.00  0.00    -0.246 OA
ATOM     64  OE1 GLY A   6     -18.489 -38.041  29.712  0.00  0.00    -0.246 OA
ENDBRANCH  61  62
ENDBRANCH  60  61
ENDBRANCH  11  60
ENDBRANCH   8  11
ENDBRANCH   6   7
ENDBRANCH   3   6
ENDBRANCH   1   2
BRANCH   1  65
ATOM     65  C   SER A   8     -29.038 -35.591  24.697  0.00  0.00    +0.242 C 
ATOM     66  N   GLY A   9     -29.329 -34.701  25.640  0.00  0.00    -0.297 N 
ATOM     67  H   GLY A   9     -28.680 -33.904  25.799  0.00  0.00    +0.150 HD
ATOM     68  O   SER A   8     -29.744 -36.576  24.456  0.00  0.00    -0.273 OA
BRANCH  66  69
ATOM     69  CA  GLY A   9     -30.527 -34.809  26.456  0.00  0.00    +0.160 C 
BRANCH  69  70
ATOM     70  C   GLY A   9     -30.656 -36.095  27.293  0.00  0.00    +0.241 C 
ATOM     71  N   GLY A  10     -29.534 -36.602  27.798  0.00  0.00    -0.298 N 
ATOM     72  H   GLY A  10     -28.626 -36.140  27.589  0.00  0.00    +0.150 HD
ATOM     73  O   GLY A   9     -31.763 -36.613  27.483  0.00  0.00    -0.273 OA
BRANCH  71  74
ATOM     74  CA  GLY A  10     -29.554 -37.801  28.644  0.00  0.00    +0.137 C 
BRANCH  74  75
ATOM     75  C   GLY A  10     -29.832 -37.377  30.080  0.00  0.00    +0.227 C 
ATOM     76  O   GLY A  10     -29.278 -36.383  30.543  0.00  0.00    -0.286 OA
ENDBRANCH  74  75
BRANCH  74  77
ATOM     77  CB  GLY A  10     -28.202 -38.512  28.603  0.00  0.00    +0.031 C 
BRANCH  77  78
ATOM     78  CG  GLY A  10     -27.730 -38.873  27.222  0.00  0.00    +0.045 C 
BRANCH  78  79
ATOM     79  CD  GLY A  10     -27.112 -40.259  27.201  0.00  0.00    +0.174 C 
BRANCH  79  80
ATOM     80  NE  GLY A  10     -26.428 -40.516  25.940  0.00  0.00    -0.265 N 
ATOM     81  CZ  GLY A  10     -25.263 -41.144  25.836  0.00  0.00    +0.342 C 
ATOM     82  NH2 GLY A  10     -24.644 -41.586  26.920  0.00  0.00    -0.292 N 
ATOM     83 HH21 GLY A  10     -25.070 -41.442  27.858  0.00  0.00    +0.255 HD
ATOM     84 HH22 GLY A  10     -23.731 -42.077  26.834  0.00  0.00    +0.255 HD
ATOM     85  NH1 GLY A  10     -24.705 -41.312  24.647  0.00  0.00    -0.292 N 
ATOM     86 HH11 GLY A  10     -23.792 -41.804  24.566  0.00  0.00    +0.255 HD
ATOM     87 HH12 GLY A  10     -25.179 -40.952  23.794  0.00  0.00    +0.255 HD
ATOM     88  HE  GLY A  10     -26.882 -40.186  25.065  0.00  0.00    +0.259 HD
ENDBRANCH  79  80
ENDBRANCH  78  79
ENDBRANCH  77  78
ENDBRANCH  74  77
ENDBRANCH  71  74
ENDBRANCH  69  70
BRANCH  69  89
ATOM     89  CB  GLY A   9     -31.773 -34.632  25.574  0.00  0.00    +0.143 C 
BRANCH  89  90
ATOM     90  CG  GLY A   9     -32.963 -34.119  26.349  0.00  0.00    +0.367 C 
ATOM     91  OD2 GLY A   9     -32.771 -33.288  27.265  0.00  0.00    -0.246 OA
ATOM     92  OD1 GLY A   9     -34.099 -34.547  26.058  0.00  0.00    -0.246 OA
ENDBRANCH  89  90
ENDBRANCH  69  89
ENDBRANCH  66  69
ENDBRANCH   1  65
BRANCH   1  93
ATOM     93  CB  SER A   8     -28.177 -35.077  22.451  0.00  0.00    +0.098 C 
BRANCH  93  94
ATOM     94  SG  SER A   8     -26.820 -35.016  21.265  0.00  0.00    -0.080 S 
BRANCH  94  95
ATOM     95  SG  TRP A   4     -27.741 -34.573  19.499  0.00  0.00    -0.080 S 
BRANCH  95  96
ATOM     96  CB  TRP A   4     -28.004 -32.754  19.552  0.00  0.00    +0.098 C 
BRANCH  96  97
ATOM     97  CA  TRP A   4     -26.764 -31.926  19.927  0.00  0.00    +0.160 C 
BRANCH  97  98
ATOM     98  C   TRP A   4     -25.849 -31.744  18.730  0.00  0.00    +0.242 C 
ATOM     99  O   TRP A   4     -25.474 -30.612  18.398  0.00  0.00    -0.273 OA
ATOM    100  N   GLU A   5     -25.469 -32.856  18.102  0.00  0.00    -0.297 N 
ATOM    101  H   GLU A   5     -25.824 -33.774  18.438  0.00  0.00    +0.150 HD
BRANCH 100 102
ATOM    102  CA  GLU A   5     -24.571 -32.820  16.959  0.00  0.00    +0.149 C 
BRANCH 102 103
ATOM    103  C   GLU A   5     -24.982 -31.744  15.961  0.00  0.00    +0.241 C 
ATOM    104  O   GLU A   5     -26.146 -31.671  15.574  0.00  0.00    -0.273 OA
ATOM    105  N   GLY A   6     -24.022 -30.925  15.539  0.00  0.00    -0.295 N 
ATOM    106  H   GLY A   6     -23.050 -31.046  15.888  0.00  0.00    +0.150 HD
BRANCH 105 107
ATOM    107  CA  GLY A   6     -24.321 -29.860  14.592  0.00  0.00    +0.176 C 
BRANCH 107 108
ATOM    108  C   GLY A   6     -24.574 -28.505  15.245  0.00  0.00    +0.243 C 
ATOM    109  N   ASP A   7     -24.917 -28.508  16.532  0.00  0.00    -0.296 N 
ATOM    110  H   ASP A   7     -25.015 -29.423  17.016  0.00  0.00    +0.150 HD
ATOM    111  O   GLY A   6     -24.477 -27.478  14.577  0.00  0.00    -0.273 OA
BRANCH 109 112
ATOM    112  CA  ASP A   7     -25.164 -27.276  17.304  0.00  0.00    +0.160 C 
BRANCH 112 113
ATOM    113  C   ASP A   7     -23.916 -26.703  17.977  0.00  0.00    +0.241 C 
ATOM    114  O   ASP A   7     -23.857 -25.500  18.271  0.00  0.00    -0.273 OA
ATOM    115  N   SER A   8     -22.935 -27.560  18.258  0.00  0.00    -0.295 N 
ATOM    116  H   SER A   8     -23.028 -28.559  17.984  0.00  0.00    +0.150 HD
BRANCH 115 117
ATOM    117  CA  SER A   8     -21.725 -27.105  18.951  0.00  0.00    +0.178 C 
BRANCH 117 118
ATOM    118  C   SER A   8     -21.028 -25.946  18.247  0.00  0.00    +0.243 C 
ATOM    119  N   GLY A   9     -20.345 -25.120  19.038  0.00  0.00    -0.295 N 
ATOM    120  H   GLY A   9     -20.277 -25.319  20.056  0.00  0.00    +0.150 HD
ATOM    121  O   SER A   8     -21.122 -25.785  17.022  0.00  0.00    -0.273 OA
BRANCH 119 122
ATOM    122  CA  GLY A   9     -19.696 -23.947  18.491  0.00  0.00    +0.176 C 
BRANCH 122 123
ATOM    123  C   GLY A   9     -20.684 -22.788  18.512  0.00  0.00    +0.243 C 
ATOM    124  N   GLY A  10     -21.957 -23.101  18.750  0.00  0.00    -0.296 N 
ATOM    125  H   GLY A  10     -22.217 -24.097  18.897  0.00  0.00    +0.150 HD
ATOM    126  O   GLY A   9     -20.301 -21.633  18.321  0.00  0.00    -0.273 OA
BRANCH 124 127
ATOM    127  CA  GLY A  10     -22.988 -22.082  18.809  0.00  0.00    +0.163 C 
BRANCH 127 128
ATOM    128  C   GLY A  10     -23.028 -21.276  20.107  0.00  0.00    +0.229 C 
ATOM    129  O   GLY A  10     -22.361 -21.610  21.102  0.00  0.00    -0.286 OA
ENDBRANCH 127 128
ENDBRANCH 124 127
ENDBRANCH 122 123
ENDBRANCH 119 122
ENDBRANCH 117 118
BRANCH 117 130
ATOM    130  CB  SER A   8     -20.759 -28.286  19.214  0.00  0.00    +0.166 C 
BRANCH 130 131
ATOM    131  OG  SER A   8     -20.126 -28.775  18.048  0.00  0.00    -0.380 OA
ATOM    132  H   SER A   8     -20.813 -29.093  17.410  0.00  0.00    +0.211 HD
ENDBRANCH 130 131
ENDBRANCH 117 130
ENDBRANCH 115 117
ENDBRANCH 112 113
BRANCH 112 133
ATOM    133  CB  ASP A   7     -26.156 -27.529  18.433  0.00  0.00    +0.143 C 
BRANCH 133 134
ATOM    134  CG  ASP A   7     -27.537 -27.820  17.939  0.00  0.00    +0.367 C 
ATOM    135  OD2 ASP A   7     -28.166 -28.727  18.513  0.00  0.00    -0.246 OA
ATOM    136  OD1 ASP A   7     -27.988 -27.128  16.993  0.00  0.00    -0.246 OA
ENDBRANCH 133 134
ENDBRANCH 112 133
ENDBRANCH 109 112
ENDBRANCH 107 108
ENDBRANCH 105 107
ENDBRANCH 102 103
BRANCH 102 137
ATOM    137  CB  GLU A   5     -24.545 -34.187  16.266  0.00  0.00    +0.041 C 
BRANCH 137 138
ATOM    138  CG  GLU A   5     -23.526 -34.266  15.153  0.00  0.00    +0.116 C 
BRANCH 138 139
ATOM    139  CD  GLU A   5     -23.238 -35.690  14.712  0.00  0.00    +0.365 C 
ATOM    140  OE2 GLU A   5     -23.699 -36.640  15.384  0.00  0.00    -0.246 OA
ATOM    141  OE1 GLU A   5     -22.545 -35.851  13.690  0.00  0.00    -0.246 OA
ENDBRANCH 138 139
ENDBRANCH 137 138
ENDBRANCH 102 137
ENDBRANCH 100 102
ENDBRANCH  97  98
BRANCH  97 144
ATOM    142  C   SER A   3     -27.536 -30.429  21.658  0.00  0.00    +0.241 C 
ATOM    143  O   SER A   3     -27.650 -31.371  22.447  0.00  0.00    -0.273 OA
ATOM    144  N   TRP A   4     -27.132 -30.600  20.410  0.00  0.00    -0.296 N 
ATOM    145  H   TRP A   4     -27.076 -29.783  19.769  0.00  0.00    +0.150 HD
BRANCH 142 146
ATOM    146  CA  SER A   3     -27.878 -29.003  22.100  0.00  0.00    +0.149 C 
ATOM    147  CB  SER A   3     -26.629 -28.152  22.137  0.00  0.00    +0.031 C 
BRANCH 146 149
ATOM    148  C   VAL A   2     -29.637 -29.568  23.628  0.00  0.00    +0.241 C 
ATOM    149  N   SER A   3     -28.374 -29.230  23.439  0.00  0.00    -0.297 N 
ATOM    150  H   SER A   3     -27.736 -29.127  24.254  0.00  0.00    +0.150 HD
ATOM    151  O   VAL A   2     -30.463 -29.594  22.715  0.00  0.00    -0.273 OA
BRANCH 148 152
ATOM    152  CA  VAL A   2     -30.039 -29.883  25.061  0.00  0.00    +0.160 C 
BRANCH 152 155
ATOM    153  C   ILE A   1     -32.109 -29.964  26.290  0.00  0.00    +0.240 C 
ATOM    154  O   ILE A   1     -31.518 -30.141  27.355  0.00  0.00    -0.274 OA
ATOM    155  N   VAL A   2     -31.481 -29.804  25.135  0.00  0.00    -0.297 N 
ATOM    156  H   VAL A   2     -32.031 -29.620  24.272  0.00  0.00    +0.150 HD
BRANCH 153 157
ATOM    157  CA  ILE A   1     -33.615 -29.888  26.244  0.00  0.00    +0.169 C 
BRANCH 157 158
ATOM    158  N   ILE A   1     -34.217 -30.823  27.167  0.00  0.00    -0.236 NA
ATOM    159  H   ILE A   1     -33.873 -31.803  27.210  0.00  0.00    +0.142 HD
ENDBRANCH 157 158
ENDBRANCH 153 157
ENDBRANCH 152 155
BRANCH 152 160
ATOM    160  CB  VAL A   2     -29.597 -31.314  25.430  0.00  0.00    +0.143 C 
BRANCH 160 161
ATOM    161  CG  VAL A   2     -28.091 -31.440  25.697  0.00  0.00    +0.367 C 
ATOM    162  OD2 VAL A   2     -27.620 -32.589  25.848  0.00  0.00    -0.246 OA
ATOM    163  OD1 VAL A   2     -27.372 -30.415  25.759  0.00  0.00    -0.246 OA
ENDBRANCH 160 161
ENDBRANCH 152 160
ENDBRANCH 148 152
ENDBRANCH 146 149
ENDBRANCH 142 146
ENDBRANCH  97 144
ENDBRANCH  96  97
ENDBRANCH  95  96
ENDBRANCH  94  95
ENDBRANCH  93  94
ENDBRANCH   1  93
TORSDOF 70
REMARK  Name = ../refined-set-2016/1d3d/1d3d_pocket.pdb
REMARK  228 active torsions:
REMARK  status: ('A' for Active; 'I' for Inactive)
REMARK    1  A    between atoms: _1  and  _5
REMARK    2  A    between atoms: _5  and  _6
REMARK    3  A    between atoms: _5  and  _8
REMARK    4  A    between atoms: _8  and  _9
REMARK    5  A    between atoms: _12  and  _14
REMARK    6  A    between atoms: _14  and  _15
REMARK    7  A    between atoms: _14  and  _17
REMARK    8  A    between atoms: _20  and  _22
REMARK    9  A    between atoms: _22  and  _23
REMARK   10  A    between atoms: _22  and  _25
REMARK   11  A    between atoms: _25  and  _26
REMARK   12  A    between atoms: _29  and  _31
REMARK   13  A    between atoms: _31  and  _32
REMARK   14  A    between atoms: _31  and  _34
REMARK   15  A    between atoms: _34  and  _35
REMARK   16  A    between atoms: _35  and  _65
REMARK   17  A    between atoms: _36  and  _38
REMARK   18  A    between atoms: _38  and  _39
REMARK   19  A    between atoms: _42  and  _44
REMARK   20  A    between atoms: _44  and  _45
REMARK   21  A    between atoms: _48  and  _50
REMARK   22  A    between atoms: _50  and  _51
REMARK   23  A    between atoms: _50  and  _53
REMARK   24  A    between atoms: _53  and  _54
REMARK   25  A    between atoms: _59  and  _61
REMARK   26  A    between atoms: _61  and  _62
REMARK   27  A    between atoms: _61  and  _64
REMARK   28  A    between atoms: _64  and  _65
REMARK   29  A    between atoms: _66  and  _68
REMARK   30  A    between atoms: _68  and  _69
REMARK   31  A    between atoms: _68  and  _71
REMARK   32  A    between atoms: _71  and  _72
REMARK   33  A    between atoms: _75  and  _77
REMARK   34  A    between atoms: _77  and  _78
REMARK   35  A    between atoms: _77  and  _80
REMARK   36  A    between atoms: _80  and  _81
REMARK   37  A    between atoms: _86  and  _87
REMARK   38  A    between atoms: _90  and  _91
REMARK   39  A    between atoms: _97  and  _98
REMARK   40  A    between atoms: _103  and  _105
REMARK   41  A    between atoms: _105  and  _106
REMARK   42  A    between atoms: _105  and  _108
REMARK   43  A    between atoms: _108  and  _109
REMARK   44  A    between atoms: _119  and  _121
REMARK   45  A    between atoms: _121  and  _122
REMARK   46  A    between atoms: _121  and  _124
REMARK   47  A    between atoms: _124  and  _125
REMARK   48  A    between atoms: _128  and  _130
REMARK   49  A    between atoms: _130  and  _131
REMARK   50  A    between atoms: _130  and  _133
REMARK   51  A    between atoms: _133  and  _134
REMARK   52  A    between atoms: _134  and  _135
REMARK   53  A    between atoms: _135  and  _136
REMARK   54  A    between atoms: _136  and  _137
REMARK   55  A    between atoms: _141  and  _143
REMARK   56  A    between atoms: _143  and  _144
REMARK   57  A    between atoms: _143  and  _146
REMARK   58  A    between atoms: _146  and  _147
REMARK   59  A    between atoms: _152  and  _153
REMARK   60  A    between atoms: _155  and  _157
REMARK   61  A    between atoms: _157  and  _158
REMARK   62  A    between atoms: _157  and  _160
REMARK   63  A    between atoms: _160  and  _161
REMARK   64  A    between atoms: _166  and  _168
REMARK   65  A    between atoms: _168  and  _169
REMARK   66  A    between atoms: _168  and  _171
REMARK   67  A    between atoms: _171  and  _172
REMARK   68  A    between atoms: _182  and  _184
REMARK   69  A    between atoms: _184  and  _185
REMARK   70  A    between atoms: _184  and  _187
REMARK   71  A    between atoms: _187  and  _188
REMARK   72  A    between atoms: _188  and  _189
REMARK   73  A    between atoms: _189  and  _190
REMARK   74  A    between atoms: _199  and  _201
REMARK   75  A    between atoms: _201  and  _202
REMARK   76  A    between atoms: _201  and  _204
REMARK   77  A    between atoms: _204  and  _205
REMARK   78  A    between atoms: _205  and  _206
REMARK   79  A    between atoms: _209  and  _211
REMARK   80  A    between atoms: _211  and  _212
REMARK   81  A    between atoms: _211  and  _214
REMARK   82  A    between atoms: _214  and  _215
REMARK   83  A    between atoms: _220  and  _222
REMARK   84  A    between atoms: _222  and  _223
REMARK   85  A    between atoms: _222  and  _225
REMARK   86  A    between atoms: _225  and  _226
REMARK   87  A    between atoms: _229  and  _231
REMARK   88  A    between atoms: _231  and  _232
REMARK   89  A    between atoms: _231  and  _234
REMARK   90  A    between atoms: _234  and  _235
REMARK   91  A    between atoms: _238  and  _240
REMARK   92  A    between atoms: _240  and  _241
REMARK   93  A    between atoms: _240  and  _243
REMARK   94  A    between atoms: _243  and  _244
REMARK   95  A    between atoms: _247  and  _249
REMARK   96  A    between atoms: _249  and  _250
REMARK   97  A    between atoms: _249  and  _252
REMARK   98  A    between atoms: _255  and  _257
REMARK   99  A    between atoms: _257  and  _258
REMARK  100  A    between atoms: _257  and  _260
REMARK  101  A    between atoms: _260  and  _261
REMARK  102  A    between atoms: _266  and  _268
REMARK  103  A    between atoms: _268  and  _269
REMARK  104  A    between atoms: _268  and  _271
REMARK  105  A    between atoms: _271  and  _272
REMARK  106  A    between atoms: _272  and  _273
REMARK  107  A    between atoms: _276  and  _278
REMARK  108  A    between atoms: _278  and  _279
REMARK  109  A    between atoms: _278  and  _281
REMARK  110  A    between atoms: _281  and  _282
REMARK  111  A    between atoms: _285  and  _287
REMARK  112  A    between atoms: _287  and  _288
REMARK  113  A    between atoms: _287  and  _290
REMARK  114  A    between atoms: _290  and  _291
REMARK  115  A    between atoms: _294  and  _296
REMARK  116  A    between atoms: _296  and  _297
REMARK  117  A    between atoms: _296  and  _299
REMARK  118  A    between atoms: _299  and  _300
REMARK  119  A    between atoms: _303  and  _305
REMARK  120  A    between atoms: _305  and  _306
REMARK  121  A    between atoms: _305  and  _308
REMARK  122  A    between atoms: _308  and  _309
REMARK  123  A    between atoms: _309  and  _310
REMARK  124  A    between atoms: _310  and  _311
REMARK  125  A    between atoms: _320  and  _322
REMARK  126  A    between atoms: _322  and  _323
REMARK  127  A    between atoms: _322  and  _325
REMARK  128  A    between atoms: _325  and  _326
REMARK  129  A    between atoms: _326  and  _327
REMARK  130  A    between atoms: _329  and  _331
REMARK  131  A    between atoms: _331  and  _332
REMARK  132  A    between atoms: _335  and  _337
REMARK  133  A    between atoms: _337  and  _338
REMARK  134  A    between atoms: _340  and  _342
REMARK  135  A    between atoms: _342  and  _343
REMARK  136  A    between atoms: _342  and  _345
REMARK  137  A    between atoms: _345  and  _346
REMARK  138  A    between atoms: _349  and  _351
REMARK  139  A    between atoms: _351  and  _352
REMARK  140  A    between atoms: _355  and  _357
REMARK  141  A    between atoms: _357  and  _358
REMARK  142  A    between atoms: _357  and  _360
REMARK  143  A    between atoms: _360  and  _361
REMARK  144  A    between atoms: _361  and  _471
REMARK  145  A    between atoms: _362  and  _364
REMARK  146  A    between atoms: _364  and  _365
REMARK  147  A    between atoms: _364  and  _367
REMARK  148  A    between atoms: _367  and  _368
REMARK  149  A    between atoms: _368  and  _369
REMARK  150  A    between atoms: _372  and  _374
REMARK  151  A    between atoms: _374  and  _375
REMARK  152  A    between atoms: _377  and  _379
REMARK  153  A    between atoms: _379  and  _380
REMARK  154  A    between atoms: _379  and  _382
REMARK  155  A    between atoms: _382  and  _383
REMARK  156  A    between atoms: _386  and  _388
REMARK  157  A    between atoms: _388  and  _389
REMARK  158  A    between atoms: _388  and  _391
REMARK  159  A    between atoms: _391  and  _392
REMARK  160  A    between atoms: _394  and  _396
REMARK  161  A    between atoms: _396  and  _397
REMARK  162  A    between atoms: _399  and  _401
REMARK  163  A    between atoms: _401  and  _402
REMARK  164  A    between atoms: _404  and  _406
REMARK  165  A    between atoms: _406  and  _407
REMARK  166  A    between atoms: _406  and  _409
REMARK  167  A    between atoms: _409  and  _410
REMARK  168  A    between atoms: _413  and  _415
REMARK  169  A    between atoms: _415  and  _416
REMARK  170  A    between atoms: _415  and  _418
REMARK  171  A    between atoms: _421  and  _423
REMARK  172  A    between atoms: _423  and  _424
REMARK  173  A    between atoms: _423  and  _426
REMARK  174  A    between atoms: _426  and  _427
REMARK  175  A    between atoms: _429  and  _431
REMARK  176  A    between atoms: _431  and  _432
REMARK  177  A    between atoms: _431  and  _434
REMARK  178  A    between atoms: _434  and  _435
REMARK  179  A    between atoms: _445  and  _447
REMARK  180  A    between atoms: _447  and  _448
REMARK  181  A    between atoms: _450  and  _452
REMARK  182  A    between atoms: _452  and  _453
REMARK  183  A    between atoms: _452  and  _455
REMARK  184  A    between atoms: _455  and  _456
REMARK  185  A    between atoms: _456  and  _457
REMARK  186  A    between atoms: _460  and  _462
REMARK  187  A    between atoms: _462  and  _463
REMARK  188  A    between atoms: _465  and  _467
REMARK  189  A    between atoms: _467  and  _468
REMARK  190  A    between atoms: _467  and  _470
REMARK  191  A    between atoms: _470  and  _471
REMARK  192  A    between atoms: _472  and  _474
REMARK  193  A    between atoms: _474  and  _475
REMARK  194  A    between atoms: _474  and  _477
REMARK  195  A    between atoms: _477  and  _478
REMARK  196  A    between atoms: _481  and  _483
REMARK  197  A    between atoms: _483  and  _484
REMARK  198  A    between atoms: _483  and  _486
REMARK  199  A    between atoms: _486  and  _487
REMARK  200  A    between atoms: _487  and  _488
REMARK  201  A    between atoms: _488  and  _489
REMARK  202  A    between atoms: _498  and  _500
REMARK  203  A    between atoms: _500  and  _501
REMARK  204  A    between atoms: _500  and  _503
REMARK  205  A    between atoms: _503  and  _504
REMARK  206  A    between atoms: _504  and  _505
REMARK  207  A    between atoms: _505  and  _506
REMARK  208  A    between atoms: _506  and  _507
REMARK  209  A    between atoms: _511  and  _513
REMARK  210  A    between atoms: _513  and  _514
REMARK  211  A    between atoms: _513  and  _516
REMARK  212  A    between atoms: _516  and  _517
REMARK  213  A    between atoms: _522  and  _523
REMARK  214  A    between atoms: _525  and  _527
REMARK  215  A    between atoms: _527  and  _528
REMARK  216  A    between atoms: _530  and  _532
REMARK  217  A    between atoms: _532  and  _533
REMARK  218  A    between atoms: _532  and  _535
REMARK  219  A    between atoms: _535  and  _536
REMARK  220  A    between atoms: _542  and  _544
REMARK  221  A    between atoms: _544  and  _545
REMARK  222  A    between atoms: _544  and  _547
REMARK  223  A    between atoms: _547  and  _548
REMARK  224  A    between atoms: _553  and  _554
REMARK  225  A    between atoms: _556  and  _558
REMARK  226  A    between atoms: _558  and  _559
REMARK  227  A    between atoms: _558  and  _561
REMARK  228  A    between atoms: _561  and  _562
REMARK                            x       y       z     vdW  Elec       q    Type
REMARK                         _______ _______ _______ _____ _____    ______ ____
ROOT
ATOM      1  C   GLY A   3     -23.098 -28.837  28.961  0.00  0.00    +0.243 C 
ATOM      2  O   GLY A   3     -23.389 -28.155  29.945  0.00  0.00    -0.273 OA
ATOM      3  N   PHE A   4     -21.892 -28.845  28.400  0.00  0.00    -0.297 N 
ATOM      4  H   PHE A   4     -21.720 -29.473  27.589  0.00  0.00    +0.150 HD
ENDROOT
BRANCH   3   5
ATOM      5  CA  PHE A   4     -20.807 -28.008  28.880  0.00  0.00    +0.153 C 
BRANCH   5   6
ATOM      6  C   PHE A   4     -20.534 -26.902  27.882  0.00  0.00    +0.241 C 
ATOM      7  N   TYR A   5     -20.282 -25.713  28.418  0.00  0.00    -0.297 N 
ATOM      8  H   TYR A   5     -20.241 -25.637  29.454  0.00  0.00    +0.150 HD
ATOM      9  O   PHE A   4     -20.547 -27.123  26.671  0.00  0.00    -0.273 OA
BRANCH   7  10
ATOM     10  CA  TYR A   5     -20.061 -24.516  27.632  0.00  0.00    +0.153 C 
BRANCH  10  11
ATOM     11  C   TYR A   5     -18.795 -23.770  28.009  0.00  0.00    +0.241 C 
ATOM     12  O   TYR A   5     -18.469 -23.656  29.186  0.00  0.00    -0.273 OA
ATOM     13  N   THR A   6     -18.109 -23.229  27.011  0.00  0.00    -0.296 N 
ATOM     14  H   THR A   6     -18.433 -23.379  26.034  0.00  0.00    +0.150 HD
BRANCH  13  15
ATOM     15  CA  THR A   6     -16.912 -22.430  27.247  0.00  0.00    +0.164 C 
BRANCH  15  16
ATOM     16  CB  THR A   6     -16.210 -22.106  25.933  0.00  0.00    +0.136 C 
ATOM     17  CG2 THR A   6     -14.907 -21.331  26.164  0.00  0.00    +0.034 C 
BRANCH  16  18
ATOM     18  OG1 THR A   6     -15.907 -23.323  25.259  0.00  0.00    -0.382 OA
ATOM     19  HG1 THR A   6     -15.451 -23.121  24.404  0.00  0.00    +0.210 HD
ENDBRANCH  16  18
ENDBRANCH  15  16
BRANCH  15  20
ATOM     20  C   THR A   6     -17.336 -21.123  27.922  0.00  0.00    +0.229 C 
ATOM     21  O   THR A   6     -18.302 -20.455  27.499  0.00  0.00    -0.286 OA
ENDBRANCH  15  20
ENDBRANCH  13  15
ENDBRANCH  10  11
BRANCH  10  22
ATOM     22  CB  TYR A   5     -21.246 -23.568  27.852  0.00  0.00    +0.055 C 
BRANCH  22  23
ATOM     23  CG  TYR A   5     -22.570 -24.162  27.473  0.00  0.00    -0.020 A 
ATOM     24  CD2 TYR A   5     -23.211 -25.091  28.298  0.00  0.00    -0.001 A 
ATOM     25  CE2 TYR A   5     -24.405 -25.687  27.909  0.00  0.00    +0.036 A 
ATOM     26  CZ  TYR A   5     -24.967 -25.346  26.679  0.00  0.00    +0.134 A 
ATOM     27  CE1 TYR A   5     -24.353 -24.428  25.863  0.00  0.00    +0.036 A 
ATOM     28  CD1 TYR A   5     -23.165 -23.839  26.253  0.00  0.00    -0.001 A 
BRANCH  26  29
ATOM     29  OH  TYR A   5     -26.126 -25.947  26.252  0.00  0.00    -0.506 OA
ATOM     30  HH  TYR A   5     -26.444 -26.578  26.945  0.00  0.00    +0.292 HD
ENDBRANCH  26  29
ENDBRANCH  22  23
ENDBRANCH  10  22
ENDBRANCH   7  10
ENDBRANCH   5   6
BRANCH   5  31
ATOM     31  CB  PHE A   4     -19.548 -28.852  29.125  0.00  0.00    +0.055 C 
BRANCH  31  32
ATOM     32  CG  PHE A   4     -19.578 -29.564  30.440  0.00  0.00    -0.020 A 
ATOM     33  CD2 PHE A   4     -19.010 -28.986  31.575  0.00  0.00    -0.004 A 
ATOM     34  CE2 PHE A   4     -19.156 -29.576  32.829  0.00  0.00    -0.000 A 
ATOM     35  CZ  PHE A   4     -19.871 -30.758  32.956  0.00  0.00    -0.000 A 
ATOM     36  CE1 PHE A   4     -20.436 -31.352  31.831  0.00  0.00    -0.000 A 
ATOM     37  CD1 PHE A   4     -20.283 -30.753  30.581  0.00  0.00    -0.004 A 
ENDBRANCH  31  32
ENDBRANCH   5  31
ENDBRANCH   3   5
BRANCH   1  38
ATOM     38  CA  GLY A   3     -24.142 -29.751  28.347  0.00  0.00    +0.176 C 
BRANCH  38  41
ATOM     39  C   TYR A   2     -24.496 -31.375  30.087  0.00  0.00    +0.241 C 
ATOM     40  O   TYR A   2     -23.438 -31.949  29.824  0.00  0.00    -0.273 OA
ATOM     41  N   GLY A   3     -24.932 -30.310  29.423  0.00  0.00    -0.295 N 
ATOM     42  H   GLY A   3     -25.843 -29.877  29.677  0.00  0.00    +0.150 HD
BRANCH  39  43
ATOM     43  CA  TYR A   2     -25.389 -31.851  31.212  0.00  0.00    +0.153 C 
BRANCH  43  46
ATOM     44  C   LYS A   1     -26.307 -34.019  31.750  0.00  0.00    +0.238 C 
ATOM     45  O   LYS A   1     -27.455 -33.578  31.681  0.00  0.00    -0.274 OA
ATOM     46  N   TYR A   2     -25.238 -33.263  31.524  0.00  0.00    -0.297 N 
ATOM     47  H   TYR A   2     -24.288 -33.684  31.571  0.00  0.00    +0.150 HD
BRANCH  44  48
ATOM     48  CA  LYS A   1     -26.058 -35.489  32.113  0.00  0.00    +0.145 C 
BRANCH  48  49
ATOM     49  N   LYS A   1     -27.208 -35.964  32.868  0.00  0.00    -0.238 NA
ATOM     50  H   LYS A   1     -28.150 -35.937  32.427  0.00  0.00    +0.142 HD
ENDBRANCH  48  49
BRANCH  48  51
ATOM     51  CB  LYS A   1     -25.870 -36.332  30.853  0.00  0.00    +0.026 C 
BRANCH  51  52
ATOM     52  CG  LYS A   1     -25.312 -37.731  31.146  0.00  0.00    -0.000 C 
BRANCH  52  53
ATOM     53  CD  LYS A   1     -23.802 -37.671  31.340  0.00  0.00    -0.024 C 
BRANCH  53  54
ATOM     54  CE  LYS A   1     -23.251 -38.948  31.942  0.00  0.00    -0.086 C 
BRANCH  54  55
ATOM     55  NZ  LYS A   1     -21.765 -38.860  32.079  0.00  0.00    +0.380 N 
ATOM     56  HZ1 LYS A   1     -21.522 -38.060  32.698  0.00  0.00    -0.089 HD
ATOM     57  HZ2 LYS A   1     -21.403 -39.743  32.493  0.00  0.00    -0.089 HD
ATOM     58  HZ3 LYS A   1     -21.340 -38.716  31.141  0.00  0.00    -0.089 HD
ENDBRANCH  54  55
ENDBRANCH  53  54
ENDBRANCH  52  53
ENDBRANCH  51  52
ENDBRANCH  48  51
ENDBRANCH  44  48
ENDBRANCH  43  46
BRANCH  43  59
ATOM     59  CB  TYR A   2     -25.122 -31.013  32.474  0.00  0.00    +0.055 C 
BRANCH  59  60
ATOM     60  CG  TYR A   2     -25.998 -31.418  33.632  0.00  0.00    -0.020 A 
ATOM     61  CD2 TYR A   2     -25.588 -32.400  34.537  0.00  0.00    -0.001 A 
ATOM     62  CE2 TYR A   2     -26.429 -32.824  35.570  0.00  0.00    +0.036 A 
ATOM     63  CZ  TYR A   2     -27.689 -32.261  35.700  0.00  0.00    +0.134 A 
ATOM     64  CE1 TYR A   2     -28.110 -31.278  34.817  0.00  0.00    +0.036 A 
ATOM     65  CD1 TYR A   2     -27.264 -30.864  33.792  0.00  0.00    -0.001 A 
BRANCH  63  66
ATOM     66  OH  TYR A   2     -28.550 -32.705  36.684  0.00  0.00    -0.506 OA
ATOM     67  HH  TYR A   2     -28.100 -33.401  37.225  0.00  0.00    +0.292 HD
ENDBRANCH  63  66
ENDBRANCH  59  60
ENDBRANCH  43  59
ENDBRANCH  39  43
ENDBRANCH  38  41
ENDBRANCH   1  38
TORSDOF 27
REMARK  Name = ../refined-set-2016/1d3d/1d3d_pocket.pdb
REMARK  228 active torsions:
REMARK  status: ('A' for Active; 'I' for Inactive)
REMARK    1  A    between atoms: _1  and  _5
REMARK    2  A    between atoms: _5  and  _6
REMARK    3  A    between atoms: _5  and  _8
REMARK    4  A    between atoms: _8  and  _9
REMARK    5  A    between atoms: _12  and  _14
REMARK    6  A    between atoms: _14  and  _15
REMARK    7  A    between atoms: _14  and  _17
REMARK    8  A    between atoms: _20  and  _22
REMARK    9  A    between atoms: _22  and  _23
REMARK   10  A    between atoms: _22  and  _25
REMARK   11  A    between atoms: _25  and  _26
REMARK   12  A    between atoms: _29  and  _31
REMARK   13  A    between atoms: _31  and  _32
REMARK   14  A    between atoms: _31  and  _34
REMARK   15  A    between atoms: _34  and  _35
REMARK   16  A    between atoms: _35  and  _65
REMARK   17  A    between atoms: _36  and  _38
REMARK   18  A    between atoms: _38  and  _39
REMARK   19  A    between atoms: _42  and  _44
REMARK   20  A    between atoms: _44  and  _45
REMARK   21  A    between atoms: _48  and  _50
REMARK   22  A    between atoms: _50  and  _51
REMARK   23  A    between atoms: _50  and  _53
REMARK   24  A    between atoms: _53  and  _54
REMARK   25  A    between atoms: _59  and  _61
REMARK   26  A    between atoms: _61  and  _62
REMARK   27  A    between atoms: _61  and  _64
REMARK   28  A    between atoms: _64  and  _65
REMARK   29  A    between atoms: _66  and  _68
REMARK   30  A    between atoms: _68  and  _69
REMARK   31  A    between atoms: _68  and  _71
REMARK   32  A    between atoms: _71  and  _72
REMARK   33  A    between atoms: _75  and  _77
REMARK   34  A    between atoms: _77  and  _78
REMARK   35  A    between atoms: _77  and  _80
REMARK   36  A    between atoms: _80  and  _81
REMARK   37  A    between atoms: _86  and  _87
REMARK   38  A    between atoms: _90  and  _91
REMARK   39  A    between atoms: _97  and  _98
REMARK   40  A    between atoms: _103  and  _105
REMARK   41  A    between atoms: _105  and  _106
REMARK   42  A    between atoms: _105  and  _108
REMARK   43  A    between atoms: _108  and  _109
REMARK   44  A    between atoms: _119  and  _121
REMARK   45  A    between atoms: _121  and  _122
REMARK   46  A    between atoms: _121  and  _124
REMARK   47  A    between atoms: _124  and  _125
REMARK   48  A    between atoms: _128  and  _130
REMARK   49  A    between atoms: _130  and  _131
REMARK   50  A    between atoms: _130  and  _133
REMARK   51  A    between atoms: _133  and  _134
REMARK   52  A    between atoms: _134  and  _135
REMARK   53  A    between atoms: _135  and  _136
REMARK   54  A    between atoms: _136  and  _137
REMARK   55  A    between atoms: _141  and  _143
REMARK   56  A    between atoms: _143  and  _144
REMARK   57  A    between atoms: _143  and  _146
REMARK   58  A    between atoms: _146  and  _147
REMARK   59  A    between atoms: _152  and  _153
REMARK   60  A    between atoms: _155  and  _157
REMARK   61  A    between atoms: _157  and  _158
REMARK   62  A    between atoms: _157  and  _160
REMARK   63  A    between atoms: _160  and  _161
REMARK   64  A    between atoms: _166  and  _168
REMARK   65  A    between atoms: _168  and  _169
REMARK   66  A    between atoms: _168  and  _171
REMARK   67  A    between atoms: _171  and  _172
REMARK   68  A    between atoms: _182  and  _184
REMARK   69  A    between atoms: _184  and  _185
REMARK   70  A    between atoms: _184  and  _187
REMARK   71  A    between atoms: _187  and  _188
REMARK   72  A    between atoms: _188  and  _189
REMARK   73  A    between atoms: _189  and  _190
REMARK   74  A    between atoms: _199  and  _201
REMARK   75  A    between atoms: _201  and  _202
REMARK   76  A    between atoms: _201  and  _204
REMARK   77  A    between atoms: _204  and  _205
REMARK   78  A    between atoms: _205  and  _206
REMARK   79  A    between atoms: _209  and  _211
REMARK   80  A    between atoms: _211  and  _212
REMARK   81  A    between atoms: _211  and  _214
REMARK   82  A    between atoms: _214  and  _215
REMARK   83  A    between atoms: _220  and  _222
REMARK   84  A    between atoms: _222  and  _223
REMARK   85  A    between atoms: _222  and  _225
REMARK   86  A    between atoms: _225  and  _226
REMARK   87  A    between atoms: _229  and  _231
REMARK   88  A    between atoms: _231  and  _232
REMARK   89  A    between atoms: _231  and  _234
REMARK   90  A    between atoms: _234  and  _235
REMARK   91  A    between atoms: _238  and  _240
REMARK   92  A    between atoms: _240  and  _241
REMARK   93  A    between atoms: _240  and  _243
REMARK   94  A    between atoms: _243  and  _244
REMARK   95  A    between atoms: _247  and  _249
REMARK   96  A    between atoms: _249  and  _250
REMARK   97  A    between atoms: _249  and  _252
REMARK   98  A    between atoms: _255  and  _257
REMARK   99  A    between atoms: _257  and  _258
REMARK  100  A    between atoms: _257  and  _260
REMARK  101  A    between atoms: _260  and  _261
REMARK  102  A    between atoms: _266  and  _268
REMARK  103  A    between atoms: _268  and  _269
REMARK  104  A    between atoms: _268  and  _271
REMARK  105  A    between atoms: _271  and  _272
REMARK  106  A    between atoms: _272  and  _273
REMARK  107  A    between atoms: _276  and  _278
REMARK  108  A    between atoms: _278  and  _279
REMARK  109  A    between atoms: _278  and  _281
REMARK  110  A    between atoms: _281  and  _282
REMARK  111  A    between atoms: _285  and  _287
REMARK  112  A    between atoms: _287  and  _288
REMARK  113  A    between atoms: _287  and  _290
REMARK  114  A    between atoms: _290  and  _291
REMARK  115  A    between atoms: _294  and  _296
REMARK  116  A    between atoms: _296  and  _297
REMARK  117  A    between atoms: _296  and  _299
REMARK  118  A    between atoms: _299  and  _300
REMARK  119  A    between atoms: _303  and  _305
REMARK  120  A    between atoms: _305  and  _306
REMARK  121  A    between atoms: _305  and  _308
REMARK  122  A    between atoms: _308  and  _309
REMARK  123  A    between atoms: _309  and  _310
REMARK  124  A    between atoms: _310  and  _311
REMARK  125  A    between atoms: _320  and  _322
REMARK  126  A    between atoms: _322  and  _323
REMARK  127  A    between atoms: _322  and  _325
REMARK  128  A    between atoms: _325  and  _326
REMARK  129  A    between atoms: _326  and  _327
REMARK  130  A    between atoms: _329  and  _331
REMARK  131  A    between atoms: _331  and  _332
REMARK  132  A    between atoms: _335  and  _337
REMARK  133  A    between atoms: _337  and  _338
REMARK  134  A    between atoms: _340  and  _342
REMARK  135  A    between atoms: _342  and  _343
REMARK  136  A    between atoms: _342  and  _345
REMARK  137  A    between atoms: _345  and  _346
REMARK  138  A    between atoms: _349  and  _351
REMARK  139  A    between atoms: _351  and  _352
REMARK  140  A    between atoms: _355  and  _357
REMARK  141  A    between atoms: _357  and  _358
REMARK  142  A    between atoms: _357  and  _360
REMARK  143  A    between atoms: _360  and  _361
REMARK  144  A    between atoms: _361  and  _471
REMARK  145  A    between atoms: _362  and  _364
REMARK  146  A    between atoms: _364  and  _365
REMARK  147  A    between atoms: _364  and  _367
REMARK  148  A    between atoms: _367  and  _368
REMARK  149  A    between atoms: _368  and  _369
REMARK  150  A    between atoms: _372  and  _374
REMARK  151  A    between atoms: _374  and  _375
REMARK  152  A    between atoms: _377  and  _379
REMARK  153  A    between atoms: _379  and  _380
REMARK  154  A    between atoms: _379  and  _382
REMARK  155  A    between atoms: _382  and  _383
REMARK  156  A    between atoms: _386  and  _388
REMARK  157  A    between atoms: _388  and  _389
REMARK  158  A    between atoms: _388  and  _391
REMARK  159  A    between atoms: _391  and  _392
REMARK  160  A    between atoms: _394  and  _396
REMARK  161  A    between atoms: _396  and  _397
REMARK  162  A    between atoms: _399  and  _401
REMARK  163  A    between atoms: _401  and  _402
REMARK  164  A    between atoms: _404  and  _406
REMARK  165  A    between atoms: _406  and  _407
REMARK  166  A    between atoms: _406  and  _409
REMARK  167  A    between atoms: _409  and  _410
REMARK  168  A    between atoms: _413  and  _415
REMARK  169  A    between atoms: _415  and  _416
REMARK  170  A    between atoms: _415  and  _418
REMARK  171  A    between atoms: _421  and  _423
REMARK  172  A    between atoms: _423  and  _424
REMARK  173  A    between atoms: _423  and  _426
REMARK  174  A    between atoms: _426  and  _427
REMARK  175  A    between atoms: _429  and  _431
REMARK  176  A    between atoms: _431  and  _432
REMARK  177  A    between atoms: _431  and  _434
REMARK  178  A    between atoms: _434  and  _435
REMARK  179  A    between atoms: _445  and  _447
REMARK  180  A    between atoms: _447  and  _448
REMARK  181  A    between atoms: _450  and  _452
REMARK  182  A    between atoms: _452  and  _453
REMARK  183  A    between atoms: _452  and  _455
REMARK  184  A    between atoms: _455  and  _456
REMARK  185  A    between atoms: _456  and  _457
REMARK  186  A    between atoms: _460  and  _462
REMARK  187  A    between atoms: _462  and  _463
REMARK  188  A    between atoms: _465  and  _467
REMARK  189  A    between atoms: _467  and  _468
REMARK  190  A    between atoms: _467  and  _470
REMARK  191  A    between atoms: _470  and  _471
REMARK  192  A    between atoms: _472  and  _474
REMARK  193  A    between atoms: _474  and  _475
REMARK  194  A    between atoms: _474  and  _477
REMARK  195  A    between atoms: _477  and  _478
REMARK  196  A    between atoms: _481  and  _483
REMARK  197  A    between atoms: _483  and  _484
REMARK  198  A    between atoms: _483  and  _486
REMARK  199  A    between atoms: _486  and  _487
REMARK  200  A    between atoms: _487  and  _488
REMARK  201  A    between atoms: _488  and  _489
REMARK  202  A    between atoms: _498  and  _500
REMARK  203  A    between atoms: _500  and  _501
REMARK  204  A    between atoms: _500  and  _503
REMARK  205  A    between atoms: _503  and  _504
REMARK  206  A    between atoms: _504  and  _505
REMARK  207  A    between atoms: _505  and  _506
REMARK  208  A    between atoms: _506  and  _507
REMARK  209  A    between atoms: _511  and  _513
REMARK  210  A    between atoms: _513  and  _514
REMARK  211  A    between atoms: _513  and  _516
REMARK  212  A    between atoms: _516  and  _517
REMARK  213  A    between atoms: _522  and  _523
REMARK  214  A    between atoms: _525  and  _527
REMARK  215  A    between atoms: _527  and  _528
REMARK  216  A    between atoms: _530  and  _532
REMARK  217  A    between atoms: _532  and  _533
REMARK  218  A    between atoms: _532  and  _535
REMARK  219  A    between atoms: _535  and  _536
REMARK  220  A    between atoms: _542  and  _544
REMARK  221  A    between atoms: _544  and  _545
REMARK  222  A    between atoms: _544  and  _547
REMARK  223  A    between atoms: _547  and  _548
REMARK  224  A    between atoms: _553  and  _554
REMARK  225  A    between atoms: _556  and  _558
REMARK  226  A    between atoms: _558  and  _559
REMARK  227  A    between atoms: _558  and  _561
REMARK  228  A    between atoms: _561  and  _562
REMARK                            x       y       z     vdW  Elec       q    Type
REMARK                         _______ _______ _______ _____ _____    ______ ____
ROOT
ATOM      1  O   HOH     1     -26.964 -28.248  27.612  0.00  0.00    +0.000 OA
ENDROOT
TORSDOF 0
REMARK  Name = ../refined-set-2016/1d3d/1d3d_pocket.pdb
REMARK  228 active torsions:
REMARK  status: ('A' for Active; 'I' for Inactive)
REMARK    1  A    between atoms: _1  and  _5
REMARK    2  A    between atoms: _5  and  _6
REMARK    3  A    between atoms: _5  and  _8
REMARK    4  A    between atoms: _8  and  _9
REMARK    5  A    between atoms: _12  and  _14
REMARK    6  A    between atoms: _14  and  _15
REMARK    7  A    between atoms: _14  and  _17
REMARK    8  A    between atoms: _20  and  _22
REMARK    9  A    between atoms: _22  and  _23
REMARK   10  A    between atoms: _22  and  _25
REMARK   11  A    between atoms: _25  and  _26
REMARK   12  A    between atoms: _29  and  _31
REMARK   13  A    between atoms: _31  and  _32
REMARK   14  A    between atoms: _31  and  _34
REMARK   15  A    between atoms: _34  and  _35
REMARK   16  A    between atoms: _35  and  _65
REMARK   17  A    between atoms: _36  and  _38
REMARK   18  A    between atoms: _38  and  _39
REMARK   19  A    between atoms: _42  and  _44
REMARK   20  A    between atoms: _44  and  _45
REMARK   21  A    between atoms: _48  and  _50
REMARK   22  A    between atoms: _50  and  _51
REMARK   23  A    between atoms: _50  and  _53
REMARK   24  A    between atoms: _53  and  _54
REMARK   25  A    between atoms: _59  and  _61
REMARK   26  A    between atoms: _61  and  _62
REMARK   27  A    between atoms: _61  and  _64
REMARK   28  A    between atoms: _64  and  _65
REMARK   29  A    between atoms: _66  and  _68
REMARK   30  A    between atoms: _68  and  _69
REMARK   31  A    between atoms: _68  and  _71
REMARK   32  A    between atoms: _71  and  _72
REMARK   33  A    between atoms: _75  and  _77
REMARK   34  A    between atoms: _77  and  _78
REMARK   35  A    between atoms: _77  and  _80
REMARK   36  A    between atoms: _80  and  _81
REMARK   37  A    between atoms: _86  and  _87
REMARK   38  A    between atoms: _90  and  _91
REMARK   39  A    between atoms: _97  and  _98
REMARK   40  A    between atoms: _103  and  _105
REMARK   41  A    between atoms: _105  and  _106
REMARK   42  A    between atoms: _105  and  _108
REMARK   43  A    between atoms: _108  and  _109
REMARK   44  A    between atoms: _119  and  _121
REMARK   45  A    between atoms: _121  and  _122
REMARK   46  A    between atoms: _121  and  _124
REMARK   47  A    between atoms: _124  and  _125
REMARK   48  A    between atoms: _128  and  _130
REMARK   49  A    between atoms: _130  and  _131
REMARK   50  A    between atoms: _130  and  _133
REMARK   51  A    between atoms: _133  and  _134
REMARK   52  A    between atoms: _134  and  _135
REMARK   53  A    between atoms: _135  and  _136
REMARK   54  A    between atoms: _136  and  _137
REMARK   55  A    between atoms: _141  and  _143
REMARK   56  A    between atoms: _143  and  _144
REMARK   57  A    between atoms: _143  and  _146
REMARK   58  A    between atoms: _146  and  _147
REMARK   59  A    between atoms: _152  and  _153
REMARK   60  A    between atoms: _155  and  _157
REMARK   61  A    between atoms: _157  and  _158
REMARK   62  A    between atoms: _157  and  _160
REMARK   63  A    between atoms: _160  and  _161
REMARK   64  A    between atoms: _166  and  _168
REMARK   65  A    between atoms: _168  and  _169
REMARK   66  A    between atoms: _168  and  _171
REMARK   67  A    between atoms: _171  and  _172
REMARK   68  A    between atoms: _182  and  _184
REMARK   69  A    between atoms: _184  and  _185
REMARK   70  A    between atoms: _184  and  _187
REMARK   71  A    between atoms: _187  and  _188
REMARK   72  A    between atoms: _188  and  _189
REMARK   73  A    between atoms: _189  and  _190
REMARK   74  A    between atoms: _199  and  _201
REMARK   75  A    between atoms: _201  and  _202
REMARK   76  A    between atoms: _201  and  _204
REMARK   77  A    between atoms: _204  and  _205
REMARK   78  A    between atoms: _205  and  _206
REMARK   79  A    between atoms: _209  and  _211
REMARK   80  A    between atoms: _211  and  _212
REMARK   81  A    between atoms: _211  and  _214
REMARK   82  A    between atoms: _214  and  _215
REMARK   83  A    between atoms: _220  and  _222
REMARK   84  A    between atoms: _222  and  _223
REMARK   85  A    between atoms: _222  and  _225
REMARK   86  A    between atoms: _225  and  _226
REMARK   87  A    between atoms: _229  and  _231
REMARK   88  A    between atoms: _231  and  _232
REMARK   89  A    between atoms: _231  and  _234
REMARK   90  A    between atoms: _234  and  _235
REMARK   91  A    between atoms: _238  and  _240
REMARK   92  A    between atoms: _240  and  _241
REMARK   93  A    between atoms: _240  and  _243
REMARK   94  A    between atoms: _243  and  _244
REMARK   95  A    between atoms: _247  and  _249
REMARK   96  A    between atoms: _249  and  _250
REMARK   97  A    between atoms: _249  and  _252
REMARK   98  A    between atoms: _255  and  _257
REMARK   99  A    between atoms: _257  and  _258
REMARK  100  A    between atoms: _257  and  _260
REMARK  101  A    between atoms: _260  and  _261
REMARK  102  A    between atoms: _266  and  _268
REMARK  103  A    between atoms: _268  and  _269
REMARK  104  A    between atoms: _268  and  _271
REMARK  105  A    between atoms: _271  and  _272
REMARK  106  A    between atoms: _272  and  _273
REMARK  107  A    between atoms: _276  and  _278
REMARK  108  A    between atoms: _278  and  _279
REMARK  109  A    between atoms: _278  and  _281
REMARK  110  A    between atoms: _281  and  _282
REMARK  111  A    between atoms: _285  and  _287
REMARK  112  A    between atoms: _287  and  _288
REMARK  113  A    between atoms: _287  and  _290
REMARK  114  A    between atoms: _290  and  _291
REMARK  115  A    between atoms: _294  and  _296
REMARK  116  A    between atoms: _296  and  _297
REMARK  117  A    between atoms: _296  and  _299
REMARK  118  A    between atoms: _299  and  _300
REMARK  119  A    between atoms: _303  and  _305
REMARK  120  A    between atoms: _305  and  _306
REMARK  121  A    between atoms: _305  and  _308
REMARK  122  A    between atoms: _308  and  _309
REMARK  123  A    between atoms: _309  and  _310
REMARK  124  A    between atoms: _310  and  _311
REMARK  125  A    between atoms: _320  and  _322
REMARK  126  A    between atoms: _322  and  _323
REMARK  127  A    between atoms: _322  and  _325
REMARK  128  A    between atoms: _325  and  _326
REMARK  129  A    between atoms: _326  and  _327
REMARK  130  A    between atoms: _329  and  _331
REMARK  131  A    between atoms: _331  and  _332
REMARK  132  A    between atoms: _335  and  _337
REMARK  133  A    between atoms: _337  and  _338
REMARK  134  A    between atoms: _340  and  _342
REMARK  135  A    between atoms: _342  and  _343
REMARK  136  A    between atoms: _342  and  _345
REMARK  137  A    between atoms: _345  and  _346
REMARK  138  A    between atoms: _349  and  _351
REMARK  139  A    between atoms: _351  and  _352
REMARK  140  A    between atoms: _355  and  _357
REMARK  141  A    between atoms: _357  and  _358
REMARK  142  A    between atoms: _357  and  _360
REMARK  143  A    between atoms: _360  and  _361
REMARK  144  A    between atoms: _361  and  _471
REMARK  145  A    between atoms: _362  and  _364
REMARK  146  A    between atoms: _364  and  _365
REMARK  147  A    between atoms: _364  and  _367
REMARK  148  A    between atoms: _367  and  _368
REMARK  149  A    between atoms: _368  and  _369
REMARK  150  A    between atoms: _372  and  _374
REMARK  151  A    between atoms: _374  and  _375
REMARK  152  A    between atoms: _377  and  _379
REMARK  153  A    between atoms: _379  and  _380
REMARK  154  A    between atoms: _379  and  _382
REMARK  155  A    between atoms: _382  and  _383
REMARK  156  A    between atoms: _386  and  _388
REMARK  157  A    between atoms: _388  and  _389
REMARK  158  A    between atoms: _388  and  _391
REMARK  159  A    between atoms: _391  and  _392
REMARK  160  A    between atoms: _394  and  _396
REMARK  161  A    between atoms: _396  and  _397
REMARK  162  A    between atoms: _399  and  _401
REMARK  163  A    between atoms: _401  and  _402
REMARK  164  A    between atoms: _404  and  _406
REMARK  165  A    between atoms: _406  and  _407
REMARK  166  A    between atoms: _406  and  _409
REMARK  167  A    between atoms: _409  and  _410
REMARK  168  A    between atoms: _413  and  _415
REMARK  169  A    between atoms: _415  and  _416
REMARK  170  A    between atoms: _415  and  _418
REMARK  171  A    between atoms: _421  and  _423
REMARK  172  A    between atoms: _423  and  _424
REMARK  173  A    between atoms: _423  and  _426
REMARK  174  A    between atoms: _426  and  _427
REMARK  175  A    between atoms: _429  and  _431
REMARK  176  A    between atoms: _431  and  _432
REMARK  177  A    between atoms: _431  and  _434
REMARK  178  A    between atoms: _434  and  _435
REMARK  179  A    between atoms: _445  and  _447
REMARK  180  A    between atoms: _447  and  _448
REMARK  181  A    between atoms: _450  and  _452
REMARK  182  A    between atoms: _452  and  _453
REMARK  183  A    between atoms: _452  and  _455
REMARK  184  A    between atoms: _455  and  _456
REMARK  185  A    between atoms: _456  and  _457
REMARK  186  A    between atoms: _460  and  _462
REMARK  187  A    between atoms: _462  and  _463
REMARK  188  A    between atoms: _465  and  _467
REMARK  189  A    between atoms: _467  and  _468
REMARK  190  A    between atoms: _467  and  _470
REMARK  191  A    between atoms: _470  and  _471
REMARK  192  A    between atoms: _472  and  _474
REMARK  193  A    between atoms: _474  and  _475
REMARK  194  A    between atoms: _474  and  _477
REMARK  195  A    between atoms: _477  and  _478
REMARK  196  A    between atoms: _481  and  _483
REMARK  197  A    between atoms: _483  and  _484
REMARK  198  A    between atoms: _483  and  _486
REMARK  199  A    between atoms: _486  and  _487
REMARK  200  A    between atoms: _487  and  _488
REMARK  201  A    between atoms: _488  and  _489
REMARK  202  A    between atoms: _498  and  _500
REMARK  203  A    between atoms: _500  and  _501
REMARK  204  A    between atoms: _500  and  _503
REMARK  205  A    between atoms: _503  and  _504
REMARK  206  A    between atoms: _504  and  _505
REMARK  207  A    between atoms: _505  and  _506
REMARK  208  A    between atoms: _506  and  _507
REMARK  209  A    between atoms: _511  and  _513
REMARK  210  A    between atoms: _513  and  _514
REMARK  211  A    between atoms: _513  and  _516
REMARK  212  A    between atoms: _516  and  _517
REMARK  213  A    between atoms: _522  and  _523
REMARK  214  A    between atoms: _525  and  _527
REMARK  215  A    between atoms: _527  and  _528
REMARK  216  A    between atoms: _530  and  _532
REMARK  217  A    between atoms: _532  and  _533
REMARK  218  A    between atoms: _532  and  _535
REMARK  219  A    between atoms: _535  and  _536
REMARK  220  A    between atoms: _542  and  _544
REMARK  221  A    between atoms: _544  and  _545
REMARK  222  A    between atoms: _544  and  _547
REMARK  223  A    between atoms: _547  and  _548
REMARK  224  A    between atoms: _553  and  _554
REMARK  225  A    between atoms: _556  and  _558
REMARK  226  A    between atoms: _558  and  _559
REMARK  227  A    between atoms: _558  and  _561
REMARK  228  A    between atoms: _561  and  _562
REMARK                            x       y       z     vdW  Elec       q    Type
REMARK                         _______ _______ _______ _____ _____    ______ ____
ROOT
ATOM      1  O   HOH     1     -26.565 -35.696  27.510  0.00  0.00    +0.000 OA
ENDROOT
TORSDOF 0
REMARK  Name = ../refined-set-2016/1d3d/1d3d_pocket.pdb
REMARK  228 active torsions:
REMARK  status: ('A' for Active; 'I' for Inactive)
REMARK    1  A    between atoms: _1  and  _5
REMARK    2  A    between atoms: _5  and  _6
REMARK    3  A    between atoms: _5  and  _8
REMARK    4  A    between atoms: _8  and  _9
REMARK    5  A    between atoms: _12  and  _14
REMARK    6  A    between atoms: _14  and  _15
REMARK    7  A    between atoms: _14  and  _17
REMARK    8  A    between atoms: _20  and  _22
REMARK    9  A    between atoms: _22  and  _23
REMARK   10  A    between atoms: _22  and  _25
REMARK   11  A    between atoms: _25  and  _26
REMARK   12  A    between atoms: _29  and  _31
REMARK   13  A    between atoms: _31  and  _32
REMARK   14  A    between atoms: _31  and  _34
REMARK   15  A    between atoms: _34  and  _35
REMARK   16  A    between atoms: _35  and  _65
REMARK   17  A    between atoms: _36  and  _38
REMARK   18  A    between atoms: _38  and  _39
REMARK   19  A    between atoms: _42  and  _44
REMARK   20  A    between atoms: _44  and  _45
REMARK   21  A    between atoms: _48  and  _50
REMARK   22  A    between atoms: _50  and  _51
REMARK   23  A    between atoms: _50  and  _53
REMARK   24  A    between atoms: _53  and  _54
REMARK   25  A    between atoms: _59  and  _61
REMARK   26  A    between atoms: _61  and  _62
REMARK   27  A    between atoms: _61  and  _64
REMARK   28  A    between atoms: _64  and  _65
REMARK   29  A    between atoms: _66  and  _68
REMARK   30  A    between atoms: _68  and  _69
REMARK   31  A    between atoms: _68  and  _71
REMARK   32  A    between atoms: _71  and  _72
REMARK   33  A    between atoms: _75  and  _77
REMARK   34  A    between atoms: _77  and  _78
REMARK   35  A    between atoms: _77  and  _80
REMARK   36  A    between atoms: _80  and  _81
REMARK   37  A    between atoms: _86  and  _87
REMARK   38  A    between atoms: _90  and  _91
REMARK   39  A    between atoms: _97  and  _98
REMARK   40  A    between atoms: _103  and  _105
REMARK   41  A    between atoms: _105  and  _106
REMARK   42  A    between atoms: _105  and  _108
REMARK   43  A    between atoms: _108  and  _109
REMARK   44  A    between atoms: _119  and  _121
REMARK   45  A    between atoms: _121  and  _122
REMARK   46  A    between atoms: _121  and  _124
REMARK   47  A    between atoms: _124  and  _125
REMARK   48  A    between atoms: _128  and  _130
REMARK   49  A    between atoms: _130  and  _131
REMARK   50  A    between atoms: _130  and  _133
REMARK   51  A    between atoms: _133  and  _134
REMARK   52  A    between atoms: _134  and  _135
REMARK   53  A    between atoms: _135  and  _136
REMARK   54  A    between atoms: _136  and  _137
REMARK   55  A    between atoms: _141  and  _143
REMARK   56  A    between atoms: _143  and  _144
REMARK   57  A    between atoms: _143  and  _146
REMARK   58  A    between atoms: _146  and  _147
REMARK   59  A    between atoms: _152  and  _153
REMARK   60  A    between atoms: _155  and  _157
REMARK   61  A    between atoms: _157  and  _158
REMARK   62  A    between atoms: _157  and  _160
REMARK   63  A    between atoms: _160  and  _161
REMARK   64  A    between atoms: _166  and  _168
REMARK   65  A    between atoms: _168  and  _169
REMARK   66  A    between atoms: _168  and  _171
REMARK   67  A    between atoms: _171  and  _172
REMARK   68  A    between atoms: _182  and  _184
REMARK   69  A    between atoms: _184  and  _185
REMARK   70  A    between atoms: _184  and  _187
REMARK   71  A    between atoms: _187  and  _188
REMARK   72  A    between atoms: _188  and  _189
REMARK   73  A    between atoms: _189  and  _190
REMARK   74  A    between atoms: _199  and  _201
REMARK   75  A    between atoms: _201  and  _202
REMARK   76  A    between atoms: _201  and  _204
REMARK   77  A    between atoms: _204  and  _205
REMARK   78  A    between atoms: _205  and  _206
REMARK   79  A    between atoms: _209  and  _211
REMARK   80  A    between atoms: _211  and  _212
REMARK   81  A    between atoms: _211  and  _214
REMARK   82  A    between atoms: _214  and  _215
REMARK   83  A    between atoms: _220  and  _222
REMARK   84  A    between atoms: _222  and  _223
REMARK   85  A    between atoms: _222  and  _225
REMARK   86  A    between atoms: _225  and  _226
REMARK   87  A    between atoms: _229  and  _231
REMARK   88  A    between atoms: _231  and  _232
REMARK   89  A    between atoms: _231  and  _234
REMARK   90  A    between atoms: _234  and  _235
REMARK   91  A    between atoms: _238  and  _240
REMARK   92  A    between atoms: _240  and  _241
REMARK   93  A    between atoms: _240  and  _243
REMARK   94  A    between atoms: _243  and  _244
REMARK   95  A    between atoms: _247  and  _249
REMARK   96  A    between atoms: _249  and  _250
REMARK   97  A    between atoms: _249  and  _252
REMARK   98  A    between atoms: _255  and  _257
REMARK   99  A    between atoms: _257  and  _258
REMARK  100  A    between atoms: _257  and  _260
REMARK  101  A    between atoms: _260  and  _261
REMARK  102  A    between atoms: _266  and  _268
REMARK  103  A    between atoms: _268  and  _269
REMARK  104  A    between atoms: _268  and  _271
REMARK  105  A    between atoms: _271  and  _272
REMARK  106  A    between atoms: _272  and  _273
REMARK  107  A    between atoms: _276  and  _278
REMARK  108  A    between atoms: _278  and  _279
REMARK  109  A    between atoms: _278  and  _281
REMARK  110  A    between atoms: _281  and  _282
REMARK  111  A    between atoms: _285  and  _287
REMARK  112  A    between atoms: _287  and  _288
REMARK  113  A    between atoms: _287  and  _290
REMARK  114  A    between atoms: _290  and  _291
REMARK  115  A    between atoms: _294  and  _296
REMARK  116  A    between atoms: _296  and  _297
REMARK  117  A    between atoms: _296  and  _299
REMARK  118  A    between atoms: _299  and  _300
REMARK  119  A    between atoms: _303  and  _305
REMARK  120  A    between atoms: _305  and  _306
REMARK  121  A    between atoms: _305  and  _308
REMARK  122  A    between atoms: _308  and  _309
REMARK  123  A    between atoms: _309  and  _310
REMARK  124  A    between atoms: _310  and  _311
REMARK  125  A    between atoms: _320  and  _322
REMARK  126  A    between atoms: _322  and  _323
REMARK  127  A    between atoms: _322  and  _325
REMARK  128  A    between atoms: _325  and  _326
REMARK  129  A    between atoms: _326  and  _327
REMARK  130  A    between atoms: _329  and  _331
REMARK  131  A    between atoms: _331  and  _332
REMARK  132  A    between atoms: _335  and  _337
REMARK  133  A    between atoms: _337  and  _338
REMARK  134  A    between atoms: _340  and  _342
REMARK  135  A    between atoms: _342  and  _343
REMARK  136  A    between atoms: _342  and  _345
REMARK  137  A    between atoms: _345  and  _346
REMARK  138  A    between atoms: _349  and  _351
REMARK  139  A    between atoms: _351  and  _352
REMARK  140  A    between atoms: _355  and  _357
REMARK  141  A    between atoms: _357  and  _358
REMARK  142  A    between atoms: _357  and  _360
REMARK  143  A    between atoms: _360  and  _361
REMARK  144  A    between atoms: _361  and  _471
REMARK  145  A    between atoms: _362  and  _364
REMARK  146  A    between atoms: _364  and  _365
REMARK  147  A    between atoms: _364  and  _367
REMARK  148  A    between atoms: _367  and  _368
REMARK  149  A    between atoms: _368  and  _369
REMARK  150  A    between atoms: _372  and  _374
REMARK  151  A    between atoms: _374  and  _375
REMARK  152  A    between atoms: _377  and  _379
REMARK  153  A    between atoms: _379  and  _380
REMARK  154  A    between atoms: _379  and  _382
REMARK  155  A    between atoms: _382  and  _383
REMARK  156  A    between atoms: _386  and  _388
REMARK  157  A    between atoms: _388  and  _389
REMARK  158  A    between atoms: _388  and  _391
REMARK  159  A    between atoms: _391  and  _392
REMARK  160  A    between atoms: _394  and  _396
REMARK  161  A    between atoms: _396  and  _397
REMARK  162  A    between atoms: _399  and  _401
REMARK  163  A    between atoms: _401  and  _402
REMARK  164  A    between atoms: _404  and  _406
REMARK  165  A    between atoms: _406  and  _407
REMARK  166  A    between atoms: _406  and  _409
REMARK  167  A    between atoms: _409  and  _410
REMARK  168  A    between atoms: _413  and  _415
REMARK  169  A    between atoms: _415  and  _416
REMARK  170  A    between atoms: _415  and  _418
REMARK  171  A    between atoms: _421  and  _423
REMARK  172  A    between atoms: _423  and  _424
REMARK  173  A    between atoms: _423  and  _426
REMARK  174  A    between atoms: _426  and  _427
REMARK  175  A    between atoms: _429  and  _431
REMARK  176  A    between atoms: _431  and  _432
REMARK  177  A    between atoms: _431  and  _434
REMARK  178  A    between atoms: _434  and  _435
REMARK  179  A    between atoms: _445  and  _447
REMARK  180  A    between atoms: _447  and  _448
REMARK  181  A    between atoms: _450  and  _452
REMARK  182  A    between atoms: _452  and  _453
REMARK  183  A    between atoms: _452  and  _455
REMARK  184  A    between atoms: _455  and  _456
REMARK  185  A    between atoms: _456  and  _457
REMARK  186  A    between atoms: _460  and  _462
REMARK  187  A    between atoms: _462  and  _463
REMARK  188  A    between atoms: _465  and  _467
REMARK  189  A    between atoms: _467  and  _468
REMARK  190  A    between atoms: _467  and  _470
REMARK  191  A    between atoms: _470  and  _471
REMARK  192  A    between atoms: _472  and  _474
REMARK  193  A    between atoms: _474  and  _475
REMARK  194  A    between atoms: _474  and  _477
REMARK  195  A    between atoms: _477  and  _478
REMARK  196  A    between atoms: _481  and  _483
REMARK  197  A    between atoms: _483  and  _484
REMARK  198  A    between atoms: _483  and  _486
REMARK  199  A    between atoms: _486  and  _487
REMARK  200  A    between atoms: _487  and  _488
REMARK  201  A    between atoms: _488  and  _489
REMARK  202  A    between atoms: _498  and  _500
REMARK  203  A    between atoms: _500  and  _501
REMARK  204  A    between atoms: _500  and  _503
REMARK  205  A    between atoms: _503  and  _504
REMARK  206  A    between atoms: _504  and  _505
REMARK  207  A    between atoms: _505  and  _506
REMARK  208  A    between atoms: _506  and  _507
REMARK  209  A    between atoms: _511  and  _513
REMARK  210  A    between atoms: _513  and  _514
REMARK  211  A    between atoms: _513  and  _516
REMARK  212  A    between atoms: _516  and  _517
REMARK  213  A    between atoms: _522  and  _523
REMARK  214  A    between atoms: _525  and  _527
REMARK  215  A    between atoms: _527  and  _528
REMARK  216  A    between atoms: _530  and  _532
REMARK  217  A    between atoms: _532  and  _533
REMARK  218  A    between atoms: _532  and  _535
REMARK  219  A    between atoms: _535  and  _536
REMARK  220  A    between atoms: _542  and  _544
REMARK  221  A    between atoms: _544  and  _545
REMARK  222  A    between atoms: _544  and  _547
REMARK  223  A    between atoms: _547  and  _548
REMARK  224  A    between atoms: _553  and  _554
REMARK  225  A    between atoms: _556  and  _558
REMARK  226  A    between atoms: _558  and  _559
REMARK  227  A    between atoms: _558  and  _561
REMARK  228  A    between atoms: _561  and  _562
REMARK                            x       y       z     vdW  Elec       q    Type
REMARK                         _______ _______ _______ _____ _____    ______ ____
ROOT
ATOM      1  O   HOH     1     -28.984 -30.451  28.830  0.00  0.00    +0.000 OA
ENDROOT
TORSDOF 0
REMARK  Name = ../refined-set-2016/1d3d/1d3d_pocket.pdb
REMARK  228 active torsions:
REMARK  status: ('A' for Active; 'I' for Inactive)
REMARK    1  A    between atoms: _1  and  _5
REMARK    2  A    between atoms: _5  and  _6
REMARK    3  A    between atoms: _5  and  _8
REMARK    4  A    between atoms: _8  and  _9
REMARK    5  A    between atoms: _12  and  _14
REMARK    6  A    between atoms: _14  and  _15
REMARK    7  A    between atoms: _14  and  _17
REMARK    8  A    between atoms: _20  and  _22
REMARK    9  A    between atoms: _22  and  _23
REMARK   10  A    between atoms: _22  and  _25
REMARK   11  A    between atoms: _25  and  _26
REMARK   12  A    between atoms: _29  and  _31
REMARK   13  A    between atoms: _31  and  _32
REMARK   14  A    between atoms: _31  and  _34
REMARK   15  A    between atoms: _34  and  _35
REMARK   16  A    between atoms: _35  and  _65
REMARK   17  A    between atoms: _36  and  _38
REMARK   18  A    between atoms: _38  and  _39
REMARK   19  A    between atoms: _42  and  _44
REMARK   20  A    between atoms: _44  and  _45
REMARK   21  A    between atoms: _48  and  _50
REMARK   22  A    between atoms: _50  and  _51
REMARK   23  A    between atoms: _50  and  _53
REMARK   24  A    between atoms: _53  and  _54
REMARK   25  A    between atoms: _59  and  _61
REMARK   26  A    between atoms: _61  and  _62
REMARK   27  A    between atoms: _61  and  _64
REMARK   28  A    between atoms: _64  and  _65
REMARK   29  A    between atoms: _66  and  _68
REMARK   30  A    between atoms: _68  and  _69
REMARK   31  A    between atoms: _68  and  _71
REMARK   32  A    between atoms: _71  and  _72
REMARK   33  A    between atoms: _75  and  _77
REMARK   34  A    between atoms: _77  and  _78
REMARK   35  A    between atoms: _77  and  _80
REMARK   36  A    between atoms: _80  and  _81
REMARK   37  A    between atoms: _86  and  _87
REMARK   38  A    between atoms: _90  and  _91
REMARK   39  A    between atoms: _97  and  _98
REMARK   40  A    between atoms: _103  and  _105
REMARK   41  A    between atoms: _105  and  _106
REMARK   42  A    between atoms: _105  and  _108
REMARK   43  A    between atoms: _108  and  _109
REMARK   44  A    between atoms: _119  and  _121
REMARK   45  A    between atoms: _121  and  _122
REMARK   46  A    between atoms: _121  and  _124
REMARK   47  A    between atoms: _124  and  _125
REMARK   48  A    between atoms: _128  and  _130
REMARK   49  A    between atoms: _130  and  _131
REMARK   50  A    between atoms: _130  and  _133
REMARK   51  A    between atoms: _133  and  _134
REMARK   52  A    between atoms: _134  and  _135
REMARK   53  A    between atoms: _135  and  _136
REMARK   54  A    between atoms: _136  and  _137
REMARK   55  A    between atoms: _141  and  _143
REMARK   56  A    between atoms: _143  and  _144
REMARK   57  A    between atoms: _143  and  _146
REMARK   58  A    between atoms: _146  and  _147
REMARK   59  A    between atoms: _152  and  _153
REMARK   60  A    between atoms: _155  and  _157
REMARK   61  A    between atoms: _157  and  _158
REMARK   62  A    between atoms: _157  and  _160
REMARK   63  A    between atoms: _160  and  _161
REMARK   64  A    between atoms: _166  and  _168
REMARK   65  A    between atoms: _168  and  _169
REMARK   66  A    between atoms: _168  and  _171
REMARK   67  A    between atoms: _171  and  _172
REMARK   68  A    between atoms: _182  and  _184
REMARK   69  A    between atoms: _184  and  _185
REMARK   70  A    between atoms: _184  and  _187
REMARK   71  A    between atoms: _187  and  _188
REMARK   72  A    between atoms: _188  and  _189
REMARK   73  A    between atoms: _189  and  _190
REMARK   74  A    between atoms: _199  and  _201
REMARK   75  A    between atoms: _201  and  _202
REMARK   76  A    between atoms: _201  and  _204
REMARK   77  A    between atoms: _204  and  _205
REMARK   78  A    between atoms: _205  and  _206
REMARK   79  A    between atoms: _209  and  _211
REMARK   80  A    between atoms: _211  and  _212
REMARK   81  A    between atoms: _211  and  _214
REMARK   82  A    between atoms: _214  and  _215
REMARK   83  A    between atoms: _220  and  _222
REMARK   84  A    between atoms: _222  and  _223
REMARK   85  A    between atoms: _222  and  _225
REMARK   86  A    between atoms: _225  and  _226
REMARK   87  A    between atoms: _229  and  _231
REMARK   88  A    between atoms: _231  and  _232
REMARK   89  A    between atoms: _231  and  _234
REMARK   90  A    between atoms: _234  and  _235
REMARK   91  A    between atoms: _238  and  _240
REMARK   92  A    between atoms: _240  and  _241
REMARK   93  A    between atoms: _240  and  _243
REMARK   94  A    between atoms: _243  and  _244
REMARK   95  A    between atoms: _247  and  _249
REMARK   96  A    between atoms: _249  and  _250
REMARK   97  A    between atoms: _249  and  _252
REMARK   98  A    between atoms: _255  and  _257
REMARK   99  A    between atoms: _257  and  _258
REMARK  100  A    between atoms: _257  and  _260
REMARK  101  A    between atoms: _260  and  _261
REMARK  102  A    between atoms: _266  and  _268
REMARK  103  A    between atoms: _268  and  _269
REMARK  104  A    between atoms: _268  and  _271
REMARK  105  A    between atoms: _271  and  _272
REMARK  106  A    between atoms: _272  and  _273
REMARK  107  A    between atoms: _276  and  _278
REMARK  108  A    between atoms: _278  and  _279
REMARK  109  A    between atoms: _278  and  _281
REMARK  110  A    between atoms: _281  and  _282
REMARK  111  A    between atoms: _285  and  _287
REMARK  112  A    between atoms: _287  and  _288
REMARK  113  A    between atoms: _287  and  _290
REMARK  114  A    between atoms: _290  and  _291
REMARK  115  A    between atoms: _294  and  _296
REMARK  116  A    between atoms: _296  and  _297
REMARK  117  A    between atoms: _296  and  _299
REMARK  118  A    between atoms: _299  and  _300
REMARK  119  A    between atoms: _303  and  _305
REMARK  120  A    between atoms: _305  and  _306
REMARK  121  A    between atoms: _305  and  _308
REMARK  122  A    between atoms: _308  and  _309
REMARK  123  A    between atoms: _309  and  _310
REMARK  124  A    between atoms: _310  and  _311
REMARK  125  A    between atoms: _320  and  _322
REMARK  126  A    between atoms: _322  and  _323
REMARK  127  A    between atoms: _322  and  _325
REMARK  128  A    between atoms: _325  and  _326
REMARK  129  A    between atoms: _326  and  _327
REMARK  130  A    between atoms: _329  and  _331
REMARK  131  A    between atoms: _331  and  _332
REMARK  132  A    between atoms: _335  and  _337
REMARK  133  A    between atoms: _337  and  _338
REMARK  134  A    between atoms: _340  and  _342
REMARK  135  A    between atoms: _342  and  _343
REMARK  136  A    between atoms: _342  and  _345
REMARK  137  A    between atoms: _345  and  _346
REMARK  138  A    between atoms: _349  and  _351
REMARK  139  A    between atoms: _351  and  _352
REMARK  140  A    between atoms: _355  and  _357
REMARK  141  A    between atoms: _357  and  _358
REMARK  142  A    between atoms: _357  and  _360
REMARK  143  A    between atoms: _360  and  _361
REMARK  144  A    between atoms: _361  and  _471
REMARK  145  A    between atoms: _362  and  _364
REMARK  146  A    between atoms: _364  and  _365
REMARK  147  A    between atoms: _364  and  _367
REMARK  148  A    between atoms: _367  and  _368
REMARK  149  A    between atoms: _368  and  _369
REMARK  150  A    between atoms: _372  and  _374
REMARK  151  A    between atoms: _374  and  _375
REMARK  152  A    between atoms: _377  and  _379
REMARK  153  A    between atoms: _379  and  _380
REMARK  154  A    between atoms: _379  and  _382
REMARK  155  A    between atoms: _382  and  _383
REMARK  156  A    between atoms: _386  and  _388
REMARK  157  A    between atoms: _388  and  _389
REMARK  158  A    between atoms: _388  and  _391
REMARK  159  A    between atoms: _391  and  _392
REMARK  160  A    between atoms: _394  and  _396
REMARK  161  A    between atoms: _396  and  _397
REMARK  162  A    between atoms: _399  and  _401
REMARK  163  A    between atoms: _401  and  _402
REMARK  164  A    between atoms: _404  and  _406
REMARK  165  A    between atoms: _406  and  _407
REMARK  166  A    between atoms: _406  and  _409
REMARK  167  A    between atoms: _409  and  _410
REMARK  168  A    between atoms: _413  and  _415
REMARK  169  A    between atoms: _415  and  _416
REMARK  170  A    between atoms: _415  and  _418
REMARK  171  A    between atoms: _421  and  _423
REMARK  172  A    between atoms: _423  and  _424
REMARK  173  A    between atoms: _423  and  _426
REMARK  174  A    between atoms: _426  and  _427
REMARK  175  A    between atoms: _429  and  _431
REMARK  176  A    between atoms: _431  and  _432
REMARK  177  A    between atoms: _431  and  _434
REMARK  178  A    between atoms: _434  and  _435
REMARK  179  A    between atoms: _445  and  _447
REMARK  180  A    between atoms: _447  and  _448
REMARK  181  A    between atoms: _450  and  _452
REMARK  182  A    between atoms: _452  and  _453
REMARK  183  A    between atoms: _452  and  _455
REMARK  184  A    between atoms: _455  and  _456
REMARK  185  A    between atoms: _456  and  _457
REMARK  186  A    between atoms: _460  and  _462
REMARK  187  A    between atoms: _462  and  _463
REMARK  188  A    between atoms: _465  and  _467
REMARK  189  A    between atoms: _467  and  _468
REMARK  190  A    between atoms: _467  and  _470
REMARK  191  A    between atoms: _470  and  _471
REMARK  192  A    between atoms: _472  and  _474
REMARK  193  A    between atoms: _474  and  _475
REMARK  194  A    between atoms: _474  and  _477
REMARK  195  A    between atoms: _477  and  _478
REMARK  196  A    between atoms: _481  and  _483
REMARK  197  A    between atoms: _483  and  _484
REMARK  198  A    between atoms: _483  and  _486
REMARK  199  A    between atoms: _486  and  _487
REMARK  200  A    between atoms: _487  and  _488
REMARK  201  A    between atoms: _488  and  _489
REMARK  202  A    between atoms: _498  and  _500
REMARK  203  A    between atoms: _500  and  _501
REMARK  204  A    between atoms: _500  and  _503
REMARK  205  A    between atoms: _503  and  _504
REMARK  206  A    between atoms: _504  and  _505
REMARK  207  A    between atoms: _505  and  _506
REMARK  208  A    between atoms: _506  and  _507
REMARK  209  A    between atoms: _511  and  _513
REMARK  210  A    between atoms: _513  and  _514
REMARK  211  A    between atoms: _513  and  _516
REMARK  212  A    between atoms: _516  and  _517
REMARK  213  A    between atoms: _522  and  _523
REMARK  214  A    between atoms: _525  and  _527
REMARK  215  A    between atoms: _527  and  _528
REMARK  216  A    between atoms: _530  and  _532
REMARK  217  A    between atoms: _532  and  _533
REMARK  218  A    between atoms: _532  and  _535
REMARK  219  A    between atoms: _535  and  _536
REMARK  220  A    between atoms: _542  and  _544
REMARK  221  A    between atoms: _544  and  _545
REMARK  222  A    between atoms: _544  and  _547
REMARK  223  A    between atoms: _547  and  _548
REMARK  224  A    between atoms: _553  and  _554
REMARK  225  A    between atoms: _556  and  _558
REMARK  226  A    between atoms: _558  and  _559
REMARK  227  A    between atoms: _558  and  _561
REMARK  228  A    between atoms: _561  and  _562
REMARK                            x       y       z     vdW  Elec       q    Type
REMARK                         _______ _______ _______ _____ _____    ______ ____
ROOT
ATOM      1  O   HOH     1     -28.300 -33.285  28.416  0.00  0.00    +0.000 OA
ENDROOT
TORSDOF 0
REMARK  Name = ../refined-set-2016/1d3d/1d3d_pocket.pdb
REMARK  228 active torsions:
REMARK  status: ('A' for Active; 'I' for Inactive)
REMARK    1  A    between atoms: _1  and  _5
REMARK    2  A    between atoms: _5  and  _6
REMARK    3  A    between atoms: _5  and  _8
REMARK    4  A    between atoms: _8  and  _9
REMARK    5  A    between atoms: _12  and  _14
REMARK    6  A    between atoms: _14  and  _15
REMARK    7  A    between atoms: _14  and  _17
REMARK    8  A    between atoms: _20  and  _22
REMARK    9  A    between atoms: _22  and  _23
REMARK   10  A    between atoms: _22  and  _25
REMARK   11  A    between atoms: _25  and  _26
REMARK   12  A    between atoms: _29  and  _31
REMARK   13  A    between atoms: _31  and  _32
REMARK   14  A    between atoms: _31  and  _34
REMARK   15  A    between atoms: _34  and  _35
REMARK   16  A    between atoms: _35  and  _65
REMARK   17  A    between atoms: _36  and  _38
REMARK   18  A    between atoms: _38  and  _39
REMARK   19  A    between atoms: _42  and  _44
REMARK   20  A    between atoms: _44  and  _45
REMARK   21  A    between atoms: _48  and  _50
REMARK   22  A    between atoms: _50  and  _51
REMARK   23  A    between atoms: _50  and  _53
REMARK   24  A    between atoms: _53  and  _54
REMARK   25  A    between atoms: _59  and  _61
REMARK   26  A    between atoms: _61  and  _62
REMARK   27  A    between atoms: _61  and  _64
REMARK   28  A    between atoms: _64  and  _65
REMARK   29  A    between atoms: _66  and  _68
REMARK   30  A    between atoms: _68  and  _69
REMARK   31  A    between atoms: _68  and  _71
REMARK   32  A    between atoms: _71  and  _72
REMARK   33  A    between atoms: _75  and  _77
REMARK   34  A    between atoms: _77  and  _78
REMARK   35  A    between atoms: _77  and  _80
REMARK   36  A    between atoms: _80  and  _81
REMARK   37  A    between atoms: _86  and  _87
REMARK   38  A    between atoms: _90  and  _91
REMARK   39  A    between atoms: _97  and  _98
REMARK   40  A    between atoms: _103  and  _105
REMARK   41  A    between atoms: _105  and  _106
REMARK   42  A    between atoms: _105  and  _108
REMARK   43  A    between atoms: _108  and  _109
REMARK   44  A    between atoms: _119  and  _121
REMARK   45  A    between atoms: _121  and  _122
REMARK   46  A    between atoms: _121  and  _124
REMARK   47  A    between atoms: _124  and  _125
REMARK   48  A    between atoms: _128  and  _130
REMARK   49  A    between atoms: _130  and  _131
REMARK   50  A    between atoms: _130  and  _133
REMARK   51  A    between atoms: _133  and  _134
REMARK   52  A    between atoms: _134  and  _135
REMARK   53  A    between atoms: _135  and  _136
REMARK   54  A    between atoms: _136  and  _137
REMARK   55  A    between atoms: _141  and  _143
REMARK   56  A    between atoms: _143  and  _144
REMARK   57  A    between atoms: _143  and  _146
REMARK   58  A    between atoms: _146  and  _147
REMARK   59  A    between atoms: _152  and  _153
REMARK   60  A    between atoms: _155  and  _157
REMARK   61  A    between atoms: _157  and  _158
REMARK   62  A    between atoms: _157  and  _160
REMARK   63  A    between atoms: _160  and  _161
REMARK   64  A    between atoms: _166  and  _168
REMARK   65  A    between atoms: _168  and  _169
REMARK   66  A    between atoms: _168  and  _171
REMARK   67  A    between atoms: _171  and  _172
REMARK   68  A    between atoms: _182  and  _184
REMARK   69  A    between atoms: _184  and  _185
REMARK   70  A    between atoms: _184  and  _187
REMARK   71  A    between atoms: _187  and  _188
REMARK   72  A    between atoms: _188  and  _189
REMARK   73  A    between atoms: _189  and  _190
REMARK   74  A    between atoms: _199  and  _201
REMARK   75  A    between atoms: _201  and  _202
REMARK   76  A    between atoms: _201  and  _204
REMARK   77  A    between atoms: _204  and  _205
REMARK   78  A    between atoms: _205  and  _206
REMARK   79  A    between atoms: _209  and  _211
REMARK   80  A    between atoms: _211  and  _212
REMARK   81  A    between atoms: _211  and  _214
REMARK   82  A    between atoms: _214  and  _215
REMARK   83  A    between atoms: _220  and  _222
REMARK   84  A    between atoms: _222  and  _223
REMARK   85  A    between atoms: _222  and  _225
REMARK   86  A    between atoms: _225  and  _226
REMARK   87  A    between atoms: _229  and  _231
REMARK   88  A    between atoms: _231  and  _232
REMARK   89  A    between atoms: _231  and  _234
REMARK   90  A    between atoms: _234  and  _235
REMARK   91  A    between atoms: _238  and  _240
REMARK   92  A    between atoms: _240  and  _241
REMARK   93  A    between atoms: _240  and  _243
REMARK   94  A    between atoms: _243  and  _244
REMARK   95  A    between atoms: _247  and  _249
REMARK   96  A    between atoms: _249  and  _250
REMARK   97  A    between atoms: _249  and  _252
REMARK   98  A    between atoms: _255  and  _257
REMARK   99  A    between atoms: _257  and  _258
REMARK  100  A    between atoms: _257  and  _260
REMARK  101  A    between atoms: _260  and  _261
REMARK  102  A    between atoms: _266  and  _268
REMARK  103  A    between atoms: _268  and  _269
REMARK  104  A    between atoms: _268  and  _271
REMARK  105  A    between atoms: _271  and  _272
REMARK  106  A    between atoms: _272  and  _273
REMARK  107  A    between atoms: _276  and  _278
REMARK  108  A    between atoms: _278  and  _279
REMARK  109  A    between atoms: _278  and  _281
REMARK  110  A    between atoms: _281  and  _282
REMARK  111  A    between atoms: _285  and  _287
REMARK  112  A    between atoms: _287  and  _288
REMARK  113  A    between atoms: _287  and  _290
REMARK  114  A    between atoms: _290  and  _291
REMARK  115  A    between atoms: _294  and  _296
REMARK  116  A    between atoms: _296  and  _297
REMARK  117  A    between atoms: _296  and  _299
REMARK  118  A    between atoms: _299  and  _300
REMARK  119  A    between atoms: _303  and  _305
REMARK  120  A    between atoms: _305  and  _306
REMARK  121  A    between atoms: _305  and  _308
REMARK  122  A    between atoms: _308  and  _309
REMARK  123  A    between atoms: _309  and  _310
REMARK  124  A    between atoms: _310  and  _311
REMARK  125  A    between atoms: _320  and  _322
REMARK  126  A    between atoms: _322  and  _323
REMARK  127  A    between atoms: _322  and  _325
REMARK  128  A    between atoms: _325  and  _326
REMARK  129  A    between atoms: _326  and  _327
REMARK  130  A    between atoms: _329  and  _331
REMARK  131  A    between atoms: _331  and  _332
REMARK  132  A    between atoms: _335  and  _337
REMARK  133  A    between atoms: _337  and  _338
REMARK  134  A    between atoms: _340  and  _342
REMARK  135  A    between atoms: _342  and  _343
REMARK  136  A    between atoms: _342  and  _345
REMARK  137  A    between atoms: _345  and  _346
REMARK  138  A    between atoms: _349  and  _351
REMARK  139  A    between atoms: _351  and  _352
REMARK  140  A    between atoms: _355  and  _357
REMARK  141  A    between atoms: _357  and  _358
REMARK  142  A    between atoms: _357  and  _360
REMARK  143  A    between atoms: _360  and  _361
REMARK  144  A    between atoms: _361  and  _471
REMARK  145  A    between atoms: _362  and  _364
REMARK  146  A    between atoms: _364  and  _365
REMARK  147  A    between atoms: _364  and  _367
REMARK  148  A    between atoms: _367  and  _368
REMARK  149  A    between atoms: _368  and  _369
REMARK  150  A    between atoms: _372  and  _374
REMARK  151  A    between atoms: _374  and  _375
REMARK  152  A    between atoms: _377  and  _379
REMARK  153  A    between atoms: _379  and  _380
REMARK  154  A    between atoms: _379  and  _382
REMARK  155  A    between atoms: _382  and  _383
REMARK  156  A    between atoms: _386  and  _388
REMARK  157  A    between atoms: _388  and  _389
REMARK  158  A    between atoms: _388  and  _391
REMARK  159  A    between atoms: _391  and  _392
REMARK  160  A    between atoms: _394  and  _396
REMARK  161  A    between atoms: _396  and  _397
REMARK  162  A    between atoms: _399  and  _401
REMARK  163  A    between atoms: _401  and  _402
REMARK  164  A    between atoms: _404  and  _406
REMARK  165  A    between atoms: _406  and  _407
REMARK  166  A    between atoms: _406  and  _409
REMARK  167  A    between atoms: _409  and  _410
REMARK  168  A    between atoms: _413  and  _415
REMARK  169  A    between atoms: _415  and  _416
REMARK  170  A    between atoms: _415  and  _418
REMARK  171  A    between atoms: _421  and  _423
REMARK  172  A    between atoms: _423  and  _424
REMARK  173  A    between atoms: _423  and  _426
REMARK  174  A    between atoms: _426  and  _427
REMARK  175  A    between atoms: _429  and  _431
REMARK  176  A    between atoms: _431  and  _432
REMARK  177  A    between atoms: _431  and  _434
REMARK  178  A    between atoms: _434  and  _435
REMARK  179  A    between atoms: _445  and  _447
REMARK  180  A    between atoms: _447  and  _448
REMARK  181  A    between atoms: _450  and  _452
REMARK  182  A    between atoms: _452  and  _453
REMARK  183  A    between atoms: _452  and  _455
REMARK  184  A    between atoms: _455  and  _456
REMARK  185  A    between atoms: _456  and  _457
REMARK  186  A    between atoms: _460  and  _462
REMARK  187  A    between atoms: _462  and  _463
REMARK  188  A    between atoms: _465  and  _467
REMARK  189  A    between atoms: _467  and  _468
REMARK  190  A    between atoms: _467  and  _470
REMARK  191  A    between atoms: _470  and  _471
REMARK  192  A    between atoms: _472  and  _474
REMARK  193  A    between atoms: _474  and  _475
REMARK  194  A    between atoms: _474  and  _477
REMARK  195  A    between atoms: _477  and  _478
REMARK  196  A    between atoms: _481  and  _483
REMARK  197  A    between atoms: _483  and  _484
REMARK  198  A    between atoms: _483  and  _486
REMARK  199  A    between atoms: _486  and  _487
REMARK  200  A    between atoms: _487  and  _488
REMARK  201  A    between atoms: _488  and  _489
REMARK  202  A    between atoms: _498  and  _500
REMARK  203  A    between atoms: _500  and  _501
REMARK  204  A    between atoms: _500  and  _503
REMARK  205  A    between atoms: _503  and  _504
REMARK  206  A    between atoms: _504  and  _505
REMARK  207  A    between atoms: _505  and  _506
REMARK  208  A    between atoms: _506  and  _507
REMARK  209  A    between atoms: _511  and  _513
REMARK  210  A    between atoms: _513  and  _514
REMARK  211  A    between atoms: _513  and  _516
REMARK  212  A    between atoms: _516  and  _517
REMARK  213  A    between atoms: _522  and  _523
REMARK  214  A    between atoms: _525  and  _527
REMARK  215  A    between atoms: _527  and  _528
REMARK  216  A    between atoms: _530  and  _532
REMARK  217  A    between atoms: _532  and  _533
REMARK  218  A    between atoms: _532  and  _535
REMARK  219  A    between atoms: _535  and  _536
REMARK  220  A    between atoms: _542  and  _544
REMARK  221  A    between atoms: _544  and  _545
REMARK  222  A    between atoms: _544  and  _547
REMARK  223  A    between atoms: _547  and  _548
REMARK  224  A    between atoms: _553  and  _554
REMARK  225  A    between atoms: _556  and  _558
REMARK  226  A    between atoms: _558  and  _559
REMARK  227  A    between atoms: _558  and  _561
REMARK  228  A    between atoms: _561  and  _562
REMARK                            x       y       z     vdW  Elec       q    Type
REMARK                         _______ _______ _______ _____ _____    ______ ____
ROOT
ATOM      1  O   HOH     1     -21.479 -29.909  16.062  0.00  0.00    +0.000 OA
ENDROOT
TORSDOF 0
REMARK  Name = ../refined-set-2016/1d3d/1d3d_pocket.pdb
REMARK  228 active torsions:
REMARK  status: ('A' for Active; 'I' for Inactive)
REMARK    1  A    between atoms: _1  and  _5
REMARK    2  A    between atoms: _5  and  _6
REMARK    3  A    between atoms: _5  and  _8
REMARK    4  A    between atoms: _8  and  _9
REMARK    5  A    between atoms: _12  and  _14
REMARK    6  A    between atoms: _14  and  _15
REMARK    7  A    between atoms: _14  and  _17
REMARK    8  A    between atoms: _20  and  _22
REMARK    9  A    between atoms: _22  and  _23
REMARK   10  A    between atoms: _22  and  _25
REMARK   11  A    between atoms: _25  and  _26
REMARK   12  A    between atoms: _29  and  _31
REMARK   13  A    between atoms: _31  and  _32
REMARK   14  A    between atoms: _31  and  _34
REMARK   15  A    between atoms: _34  and  _35
REMARK   16  A    between atoms: _35  and  _65
REMARK   17  A    between atoms: _36  and  _38
REMARK   18  A    between atoms: _38  and  _39
REMARK   19  A    between atoms: _42  and  _44
REMARK   20  A    between atoms: _44  and  _45
REMARK   21  A    between atoms: _48  and  _50
REMARK   22  A    between atoms: _50  and  _51
REMARK   23  A    between atoms: _50  and  _53
REMARK   24  A    between atoms: _53  and  _54
REMARK   25  A    between atoms: _59  and  _61
REMARK   26  A    between atoms: _61  and  _62
REMARK   27  A    between atoms: _61  and  _64
REMARK   28  A    between atoms: _64  and  _65
REMARK   29  A    between atoms: _66  and  _68
REMARK   30  A    between atoms: _68  and  _69
REMARK   31  A    between atoms: _68  and  _71
REMARK   32  A    between atoms: _71  and  _72
REMARK   33  A    between atoms: _75  and  _77
REMARK   34  A    between atoms: _77  and  _78
REMARK   35  A    between atoms: _77  and  _80
REMARK   36  A    between atoms: _80  and  _81
REMARK   37  A    between atoms: _86  and  _87
REMARK   38  A    between atoms: _90  and  _91
REMARK   39  A    between atoms: _97  and  _98
REMARK   40  A    between atoms: _103  and  _105
REMARK   41  A    between atoms: _105  and  _106
REMARK   42  A    between atoms: _105  and  _108
REMARK   43  A    between atoms: _108  and  _109
REMARK   44  A    between atoms: _119  and  _121
REMARK   45  A    between atoms: _121  and  _122
REMARK   46  A    between atoms: _121  and  _124
REMARK   47  A    between atoms: _124  and  _125
REMARK   48  A    between atoms: _128  and  _130
REMARK   49  A    between atoms: _130  and  _131
REMARK   50  A    between atoms: _130  and  _133
REMARK   51  A    between atoms: _133  and  _134
REMARK   52  A    between atoms: _134  and  _135
REMARK   53  A    between atoms: _135  and  _136
REMARK   54  A    between atoms: _136  and  _137
REMARK   55  A    between atoms: _141  and  _143
REMARK   56  A    between atoms: _143  and  _144
REMARK   57  A    between atoms: _143  and  _146
REMARK   58  A    between atoms: _146  and  _147
REMARK   59  A    between atoms: _152  and  _153
REMARK   60  A    between atoms: _155  and  _157
REMARK   61  A    between atoms: _157  and  _158
REMARK   62  A    between atoms: _157  and  _160
REMARK   63  A    between atoms: _160  and  _161
REMARK   64  A    between atoms: _166  and  _168
REMARK   65  A    between atoms: _168  and  _169
REMARK   66  A    between atoms: _168  and  _171
REMARK   67  A    between atoms: _171  and  _172
REMARK   68  A    between atoms: _182  and  _184
REMARK   69  A    between atoms: _184  and  _185
REMARK   70  A    between atoms: _184  and  _187
REMARK   71  A    between atoms: _187  and  _188
REMARK   72  A    between atoms: _188  and  _189
REMARK   73  A    between atoms: _189  and  _190
REMARK   74  A    between atoms: _199  and  _201
REMARK   75  A    between atoms: _201  and  _202
REMARK   76  A    between atoms: _201  and  _204
REMARK   77  A    between atoms: _204  and  _205
REMARK   78  A    between atoms: _205  and  _206
REMARK   79  A    between atoms: _209  and  _211
REMARK   80  A    between atoms: _211  and  _212
REMARK   81  A    between atoms: _211  and  _214
REMARK   82  A    between atoms: _214  and  _215
REMARK   83  A    between atoms: _220  and  _222
REMARK   84  A    between atoms: _222  and  _223
REMARK   85  A    between atoms: _222  and  _225
REMARK   86  A    between atoms: _225  and  _226
REMARK   87  A    between atoms: _229  and  _231
REMARK   88  A    between atoms: _231  and  _232
REMARK   89  A    between atoms: _231  and  _234
REMARK   90  A    between atoms: _234  and  _235
REMARK   91  A    between atoms: _238  and  _240
REMARK   92  A    between atoms: _240  and  _241
REMARK   93  A    between atoms: _240  and  _243
REMARK   94  A    between atoms: _243  and  _244
REMARK   95  A    between atoms: _247  and  _249
REMARK   96  A    between atoms: _249  and  _250
REMARK   97  A    between atoms: _249  and  _252
REMARK   98  A    between atoms: _255  and  _257
REMARK   99  A    between atoms: _257  and  _258
REMARK  100  A    between atoms: _257  and  _260
REMARK  101  A    between atoms: _260  and  _261
REMARK  102  A    between atoms: _266  and  _268
REMARK  103  A    between atoms: _268  and  _269
REMARK  104  A    between atoms: _268  and  _271
REMARK  105  A    between atoms: _271  and  _272
REMARK  106  A    between atoms: _272  and  _273
REMARK  107  A    between atoms: _276  and  _278
REMARK  108  A    between atoms: _278  and  _279
REMARK  109  A    between atoms: _278  and  _281
REMARK  110  A    between atoms: _281  and  _282
REMARK  111  A    between atoms: _285  and  _287
REMARK  112  A    between atoms: _287  and  _288
REMARK  113  A    between atoms: _287  and  _290
REMARK  114  A    between atoms: _290  and  _291
REMARK  115  A    between atoms: _294  and  _296
REMARK  116  A    between atoms: _296  and  _297
REMARK  117  A    between atoms: _296  and  _299
REMARK  118  A    between atoms: _299  and  _300
REMARK  119  A    between atoms: _303  and  _305
REMARK  120  A    between atoms: _305  and  _306
REMARK  121  A    between atoms: _305  and  _308
REMARK  122  A    between atoms: _308  and  _309
REMARK  123  A    between atoms: _309  and  _310
REMARK  124  A    between atoms: _310  and  _311
REMARK  125  A    between atoms: _320  and  _322
REMARK  126  A    between atoms: _322  and  _323
REMARK  127  A    between atoms: _322  and  _325
REMARK  128  A    between atoms: _325  and  _326
REMARK  129  A    between atoms: _326  and  _327
REMARK  130  A    between atoms: _329  and  _331
REMARK  131  A    between atoms: _331  and  _332
REMARK  132  A    between atoms: _335  and  _337
REMARK  133  A    between atoms: _337  and  _338
REMARK  134  A    between atoms: _340  and  _342
REMARK  135  A    between atoms: _342  and  _343
REMARK  136  A    between atoms: _342  and  _345
REMARK  137  A    between atoms: _345  and  _346
REMARK  138  A    between atoms: _349  and  _351
REMARK  139  A    between atoms: _351  and  _352
REMARK  140  A    between atoms: _355  and  _357
REMARK  141  A    between atoms: _357  and  _358
REMARK  142  A    between atoms: _357  and  _360
REMARK  143  A    between atoms: _360  and  _361
REMARK  144  A    between atoms: _361  and  _471
REMARK  145  A    between atoms: _362  and  _364
REMARK  146  A    between atoms: _364  and  _365
REMARK  147  A    between atoms: _364  and  _367
REMARK  148  A    between atoms: _367  and  _368
REMARK  149  A    between atoms: _368  and  _369
REMARK  150  A    between atoms: _372  and  _374
REMARK  151  A    between atoms: _374  and  _375
REMARK  152  A    between atoms: _377  and  _379
REMARK  153  A    between atoms: _379  and  _380
REMARK  154  A    between atoms: _379  and  _382
REMARK  155  A    between atoms: _382  and  _383
REMARK  156  A    between atoms: _386  and  _388
REMARK  157  A    between atoms: _388  and  _389
REMARK  158  A    between atoms: _388  and  _391
REMARK  159  A    between atoms: _391  and  _392
REMARK  160  A    between atoms: _394  and  _396
REMARK  161  A    between atoms: _396  and  _397
REMARK  162  A    between atoms: _399  and  _401
REMARK  163  A    between atoms: _401  and  _402
REMARK  164  A    between atoms: _404  and  _406
REMARK  165  A    between atoms: _406  and  _407
REMARK  166  A    between atoms: _406  and  _409
REMARK  167  A    between atoms: _409  and  _410
REMARK  168  A    between atoms: _413  and  _415
REMARK  169  A    between atoms: _415  and  _416
REMARK  170  A    between atoms: _415  and  _418
REMARK  171  A    between atoms: _421  and  _423
REMARK  172  A    between atoms: _423  and  _424
REMARK  173  A    between atoms: _423  and  _426
REMARK  174  A    between atoms: _426  and  _427
REMARK  175  A    between atoms: _429  and  _431
REMARK  176  A    between atoms: _431  and  _432
REMARK  177  A    between atoms: _431  and  _434
REMARK  178  A    between atoms: _434  and  _435
REMARK  179  A    between atoms: _445  and  _447
REMARK  180  A    between atoms: _447  and  _448
REMARK  181  A    between atoms: _450  and  _452
REMARK  182  A    between atoms: _452  and  _453
REMARK  183  A    between atoms: _452  and  _455
REMARK  184  A    between atoms: _455  and  _456
REMARK  185  A    between atoms: _456  and  _457
REMARK  186  A    between atoms: _460  and  _462
REMARK  187  A    between atoms: _462  and  _463
REMARK  188  A    between atoms: _465  and  _467
REMARK  189  A    between atoms: _467  and  _468
REMARK  190  A    between atoms: _467  and  _470
REMARK  191  A    between atoms: _470  and  _471
REMARK  192  A    between atoms: _472  and  _474
REMARK  193  A    between atoms: _474  and  _475
REMARK  194  A    between atoms: _474  and  _477
REMARK  195  A    between atoms: _477  and  _478
REMARK  196  A    between atoms: _481  and  _483
REMARK  197  A    between atoms: _483  and  _484
REMARK  198  A    between atoms: _483  and  _486
REMARK  199  A    between atoms: _486  and  _487
REMARK  200  A    between atoms: _487  and  _488
REMARK  201  A    between atoms: _488  and  _489
REMARK  202  A    between atoms: _498  and  _500
REMARK  203  A    between atoms: _500  and  _501
REMARK  204  A    between atoms: _500  and  _503
REMARK  205  A    between atoms: _503  and  _504
REMARK  206  A    between atoms: _504  and  _505
REMARK  207  A    between atoms: _505  and  _506
REMARK  208  A    between atoms: _506  and  _507
REMARK  209  A    between atoms: _511  and  _513
REMARK  210  A    between atoms: _513  and  _514
REMARK  211  A    between atoms: _513  and  _516
REMARK  212  A    between atoms: _516  and  _517
REMARK  213  A    between atoms: _522  and  _523
REMARK  214  A    between atoms: _525  and  _527
REMARK  215  A    between atoms: _527  and  _528
REMARK  216  A    between atoms: _530  and  _532
REMARK  217  A    between atoms: _532  and  _533
REMARK  218  A    between atoms: _532  and  _535
REMARK  219  A    between atoms: _535  and  _536
REMARK  220  A    between atoms: _542  and  _544
REMARK  221  A    between atoms: _544  and  _545
REMARK  222  A    between atoms: _544  and  _547
REMARK  223  A    between atoms: _547  and  _548
REMARK  224  A    between atoms: _553  and  _554
REMARK  225  A    between atoms: _556  and  _558
REMARK  226  A    between atoms: _558  and  _559
REMARK  227  A    between atoms: _558  and  _561
REMARK  228  A    between atoms: _561  and  _562
REMARK                            x       y       z     vdW  Elec       q    Type
REMARK                         _______ _______ _______ _____ _____    ______ ____
ROOT
ATOM      1  O   HOH     1     -25.000 -33.374  26.327  0.00  0.00    +0.000 OA
ENDROOT
TORSDOF 0
REMARK  Name = ../refined-set-2016/1d3d/1d3d_pocket.pdb
REMARK  228 active torsions:
REMARK  status: ('A' for Active; 'I' for Inactive)
REMARK    1  A    between atoms: _1  and  _5
REMARK    2  A    between atoms: _5  and  _6
REMARK    3  A    between atoms: _5  and  _8
REMARK    4  A    between atoms: _8  and  _9
REMARK    5  A    between atoms: _12  and  _14
REMARK    6  A    between atoms: _14  and  _15
REMARK    7  A    between atoms: _14  and  _17
REMARK    8  A    between atoms: _20  and  _22
REMARK    9  A    between atoms: _22  and  _23
REMARK   10  A    between atoms: _22  and  _25
REMARK   11  A    between atoms: _25  and  _26
REMARK   12  A    between atoms: _29  and  _31
REMARK   13  A    between atoms: _31  and  _32
REMARK   14  A    between atoms: _31  and  _34
REMARK   15  A    between atoms: _34  and  _35
REMARK   16  A    between atoms: _35  and  _65
REMARK   17  A    between atoms: _36  and  _38
REMARK   18  A    between atoms: _38  and  _39
REMARK   19  A    between atoms: _42  and  _44
REMARK   20  A    between atoms: _44  and  _45
REMARK   21  A    between atoms: _48  and  _50
REMARK   22  A    between atoms: _50  and  _51
REMARK   23  A    between atoms: _50  and  _53
REMARK   24  A    between atoms: _53  and  _54
REMARK   25  A    between atoms: _59  and  _61
REMARK   26  A    between atoms: _61  and  _62
REMARK   27  A    between atoms: _61  and  _64
REMARK   28  A    between atoms: _64  and  _65
REMARK   29  A    between atoms: _66  and  _68
REMARK   30  A    between atoms: _68  and  _69
REMARK   31  A    between atoms: _68  and  _71
REMARK   32  A    between atoms: _71  and  _72
REMARK   33  A    between atoms: _75  and  _77
REMARK   34  A    between atoms: _77  and  _78
REMARK   35  A    between atoms: _77  and  _80
REMARK   36  A    between atoms: _80  and  _81
REMARK   37  A    between atoms: _86  and  _87
REMARK   38  A    between atoms: _90  and  _91
REMARK   39  A    between atoms: _97  and  _98
REMARK   40  A    between atoms: _103  and  _105
REMARK   41  A    between atoms: _105  and  _106
REMARK   42  A    between atoms: _105  and  _108
REMARK   43  A    between atoms: _108  and  _109
REMARK   44  A    between atoms: _119  and  _121
REMARK   45  A    between atoms: _121  and  _122
REMARK   46  A    between atoms: _121  and  _124
REMARK   47  A    between atoms: _124  and  _125
REMARK   48  A    between atoms: _128  and  _130
REMARK   49  A    between atoms: _130  and  _131
REMARK   50  A    between atoms: _130  and  _133
REMARK   51  A    between atoms: _133  and  _134
REMARK   52  A    between atoms: _134  and  _135
REMARK   53  A    between atoms: _135  and  _136
REMARK   54  A    between atoms: _136  and  _137
REMARK   55  A    between atoms: _141  and  _143
REMARK   56  A    between atoms: _143  and  _144
REMARK   57  A    between atoms: _143  and  _146
REMARK   58  A    between atoms: _146  and  _147
REMARK   59  A    between atoms: _152  and  _153
REMARK   60  A    between atoms: _155  and  _157
REMARK   61  A    between atoms: _157  and  _158
REMARK   62  A    between atoms: _157  and  _160
REMARK   63  A    between atoms: _160  and  _161
REMARK   64  A    between atoms: _166  and  _168
REMARK   65  A    between atoms: _168  and  _169
REMARK   66  A    between atoms: _168  and  _171
REMARK   67  A    between atoms: _171  and  _172
REMARK   68  A    between atoms: _182  and  _184
REMARK   69  A    between atoms: _184  and  _185
REMARK   70  A    between atoms: _184  and  _187
REMARK   71  A    between atoms: _187  and  _188
REMARK   72  A    between atoms: _188  and  _189
REMARK   73  A    between atoms: _189  and  _190
REMARK   74  A    between atoms: _199  and  _201
REMARK   75  A    between atoms: _201  and  _202
REMARK   76  A    between atoms: _201  and  _204
REMARK   77  A    between atoms: _204  and  _205
REMARK   78  A    between atoms: _205  and  _206
REMARK   79  A    between atoms: _209  and  _211
REMARK   80  A    between atoms: _211  and  _212
REMARK   81  A    between atoms: _211  and  _214
REMARK   82  A    between atoms: _214  and  _215
REMARK   83  A    between atoms: _220  and  _222
REMARK   84  A    between atoms: _222  and  _223
REMARK   85  A    between atoms: _222  and  _225
REMARK   86  A    between atoms: _225  and  _226
REMARK   87  A    between atoms: _229  and  _231
REMARK   88  A    between atoms: _231  and  _232
REMARK   89  A    between atoms: _231  and  _234
REMARK   90  A    between atoms: _234  and  _235
REMARK   91  A    between atoms: _238  and  _240
REMARK   92  A    between atoms: _240  and  _241
REMARK   93  A    between atoms: _240  and  _243
REMARK   94  A    between atoms: _243  and  _244
REMARK   95  A    between atoms: _247  and  _249
REMARK   96  A    between atoms: _249  and  _250
REMARK   97  A    between atoms: _249  and  _252
REMARK   98  A    between atoms: _255  and  _257
REMARK   99  A    between atoms: _257  and  _258
REMARK  100  A    between atoms: _257  and  _260
REMARK  101  A    between atoms: _260  and  _261
REMARK  102  A    between atoms: _266  and  _268
REMARK  103  A    between atoms: _268  and  _269
REMARK  104  A    between atoms: _268  and  _271
REMARK  105  A    between atoms: _271  and  _272
REMARK  106  A    between atoms: _272  and  _273
REMARK  107  A    between atoms: _276  and  _278
REMARK  108  A    between atoms: _278  and  _279
REMARK  109  A    between atoms: _278  and  _281
REMARK  110  A    between atoms: _281  and  _282
REMARK  111  A    between atoms: _285  and  _287
REMARK  112  A    between atoms: _287  and  _288
REMARK  113  A    between atoms: _287  and  _290
REMARK  114  A    between atoms: _290  and  _291
REMARK  115  A    between atoms: _294  and  _296
REMARK  116  A    between atoms: _296  and  _297
REMARK  117  A    between atoms: _296  and  _299
REMARK  118  A    between atoms: _299  and  _300
REMARK  119  A    between atoms: _303  and  _305
REMARK  120  A    between atoms: _305  and  _306
REMARK  121  A    between atoms: _305  and  _308
REMARK  122  A    between atoms: _308  and  _309
REMARK  123  A    between atoms: _309  and  _310
REMARK  124  A    between atoms: _310  and  _311
REMARK  125  A    between atoms: _320  and  _322
REMARK  126  A    between atoms: _322  and  _323
REMARK  127  A    between atoms: _322  and  _325
REMARK  128  A    between atoms: _325  and  _326
REMARK  129  A    between atoms: _326  and  _327
REMARK  130  A    between atoms: _329  and  _331
REMARK  131  A    between atoms: _331  and  _332
REMARK  132  A    between atoms: _335  and  _337
REMARK  133  A    between atoms: _337  and  _338
REMARK  134  A    between atoms: _340  and  _342
REMARK  135  A    between atoms: _342  and  _343
REMARK  136  A    between atoms: _342  and  _345
REMARK  137  A    between atoms: _345  and  _346
REMARK  138  A    between atoms: _349  and  _351
REMARK  139  A    between atoms: _351  and  _352
REMARK  140  A    between atoms: _355  and  _357
REMARK  141  A    between atoms: _357  and  _358
REMARK  142  A    between atoms: _357  and  _360
REMARK  143  A    between atoms: _360  and  _361
REMARK  144  A    between atoms: _361  and  _471
REMARK  145  A    between atoms: _362  and  _364
REMARK  146  A    between atoms: _364  and  _365
REMARK  147  A    between atoms: _364  and  _367
REMARK  148  A    between atoms: _367  and  _368
REMARK  149  A    between atoms: _368  and  _369
REMARK  150  A    between atoms: _372  and  _374
REMARK  151  A    between atoms: _374  and  _375
REMARK  152  A    between atoms: _377  and  _379
REMARK  153  A    between atoms: _379  and  _380
REMARK  154  A    between atoms: _379  and  _382
REMARK  155  A    between atoms: _382  and  _383
REMARK  156  A    between atoms: _386  and  _388
REMARK  157  A    between atoms: _388  and  _389
REMARK  158  A    between atoms: _388  and  _391
REMARK  159  A    between atoms: _391  and  _392
REMARK  160  A    between atoms: _394  and  _396
REMARK  161  A    between atoms: _396  and  _397
REMARK  162  A    between atoms: _399  and  _401
REMARK  163  A    between atoms: _401  and  _402
REMARK  164  A    between atoms: _404  and  _406
REMARK  165  A    between atoms: _406  and  _407
REMARK  166  A    between atoms: _406  and  _409
REMARK  167  A    between atoms: _409  and  _410
REMARK  168  A    between atoms: _413  and  _415
REMARK  169  A    between atoms: _415  and  _416
REMARK  170  A    between atoms: _415  and  _418
REMARK  171  A    between atoms: _421  and  _423
REMARK  172  A    between atoms: _423  and  _424
REMARK  173  A    between atoms: _423  and  _426
REMARK  174  A    between atoms: _426  and  _427
REMARK  175  A    between atoms: _429  and  _431
REMARK  176  A    between atoms: _431  and  _432
REMARK  177  A    between atoms: _431  and  _434
REMARK  178  A    between atoms: _434  and  _435
REMARK  179  A    between atoms: _445  and  _447
REMARK  180  A    between atoms: _447  and  _448
REMARK  181  A    between atoms: _450  and  _452
REMARK  182  A    between atoms: _452  and  _453
REMARK  183  A    between atoms: _452  and  _455
REMARK  184  A    between atoms: _455  and  _456
REMARK  185  A    between atoms: _456  and  _457
REMARK  186  A    between atoms: _460  and  _462
REMARK  187  A    between atoms: _462  and  _463
REMARK  188  A    between atoms: _465  and  _467
REMARK  189  A    between atoms: _467  and  _468
REMARK  190  A    between atoms: _467  and  _470
REMARK  191  A    between atoms: _470  and  _471
REMARK  192  A    between atoms: _472  and  _474
REMARK  193  A    between atoms: _474  and  _475
REMARK  194  A    between atoms: _474  and  _477
REMARK  195  A    between atoms: _477  and  _478
REMARK  196  A    between atoms: _481  and  _483
REMARK  197  A    between atoms: _483  and  _484
REMARK  198  A    between atoms: _483  and  _486
REMARK  199  A    between atoms: _486  and  _487
REMARK  200  A    between atoms: _487  and  _488
REMARK  201  A    between atoms: _488  and  _489
REMARK  202  A    between atoms: _498  and  _500
REMARK  203  A    between atoms: _500  and  _501
REMARK  204  A    between atoms: _500  and  _503
REMARK  205  A    between atoms: _503  and  _504
REMARK  206  A    between atoms: _504  and  _505
REMARK  207  A    between atoms: _505  and  _506
REMARK  208  A    between atoms: _506  and  _507
REMARK  209  A    between atoms: _511  and  _513
REMARK  210  A    between atoms: _513  and  _514
REMARK  211  A    between atoms: _513  and  _516
REMARK  212  A    between atoms: _516  and  _517
REMARK  213  A    between atoms: _522  and  _523
REMARK  214  A    between atoms: _525  and  _527
REMARK  215  A    between atoms: _527  and  _528
REMARK  216  A    between atoms: _530  and  _532
REMARK  217  A    between atoms: _532  and  _533
REMARK  218  A    between atoms: _532  and  _535
REMARK  219  A    between atoms: _535  and  _536
REMARK  220  A    between atoms: _542  and  _544
REMARK  221  A    between atoms: _544  and  _545
REMARK  222  A    between atoms: _544  and  _547
REMARK  223  A    between atoms: _547  and  _548
REMARK  224  A    between atoms: _553  and  _554
REMARK  225  A    between atoms: _556  and  _558
REMARK  226  A    between atoms: _558  and  _559
REMARK  227  A    between atoms: _558  and  _561
REMARK  228  A    between atoms: _561  and  _562
REMARK                            x       y       z     vdW  Elec       q    Type
REMARK                         _______ _______ _______ _____ _____    ______ ____
ROOT
ATOM      1  O   HOH     1     -10.191 -35.376  23.484  0.00  0.00    +0.000 OA
ENDROOT
TORSDOF 0
REMARK  Name = ../refined-set-2016/1d3d/1d3d_pocket.pdb
REMARK  228 active torsions:
REMARK  status: ('A' for Active; 'I' for Inactive)
REMARK    1  A    between atoms: _1  and  _5
REMARK    2  A    between atoms: _5  and  _6
REMARK    3  A    between atoms: _5  and  _8
REMARK    4  A    between atoms: _8  and  _9
REMARK    5  A    between atoms: _12  and  _14
REMARK    6  A    between atoms: _14  and  _15
REMARK    7  A    between atoms: _14  and  _17
REMARK    8  A    between atoms: _20  and  _22
REMARK    9  A    between atoms: _22  and  _23
REMARK   10  A    between atoms: _22  and  _25
REMARK   11  A    between atoms: _25  and  _26
REMARK   12  A    between atoms: _29  and  _31
REMARK   13  A    between atoms: _31  and  _32
REMARK   14  A    between atoms: _31  and  _34
REMARK   15  A    between atoms: _34  and  _35
REMARK   16  A    between atoms: _35  and  _65
REMARK   17  A    between atoms: _36  and  _38
REMARK   18  A    between atoms: _38  and  _39
REMARK   19  A    between atoms: _42  and  _44
REMARK   20  A    between atoms: _44  and  _45
REMARK   21  A    between atoms: _48  and  _50
REMARK   22  A    between atoms: _50  and  _51
REMARK   23  A    between atoms: _50  and  _53
REMARK   24  A    between atoms: _53  and  _54
REMARK   25  A    between atoms: _59  and  _61
REMARK   26  A    between atoms: _61  and  _62
REMARK   27  A    between atoms: _61  and  _64
REMARK   28  A    between atoms: _64  and  _65
REMARK   29  A    between atoms: _66  and  _68
REMARK   30  A    between atoms: _68  and  _69
REMARK   31  A    between atoms: _68  and  _71
REMARK   32  A    between atoms: _71  and  _72
REMARK   33  A    between atoms: _75  and  _77
REMARK   34  A    between atoms: _77  and  _78
REMARK   35  A    between atoms: _77  and  _80
REMARK   36  A    between atoms: _80  and  _81
REMARK   37  A    between atoms: _86  and  _87
REMARK   38  A    between atoms: _90  and  _91
REMARK   39  A    between atoms: _97  and  _98
REMARK   40  A    between atoms: _103  and  _105
REMARK   41  A    between atoms: _105  and  _106
REMARK   42  A    between atoms: _105  and  _108
REMARK   43  A    between atoms: _108  and  _109
REMARK   44  A    between atoms: _119  and  _121
REMARK   45  A    between atoms: _121  and  _122
REMARK   46  A    between atoms: _121  and  _124
REMARK   47  A    between atoms: _124  and  _125
REMARK   48  A    between atoms: _128  and  _130
REMARK   49  A    between atoms: _130  and  _131
REMARK   50  A    between atoms: _130  and  _133
REMARK   51  A    between atoms: _133  and  _134
REMARK   52  A    between atoms: _134  and  _135
REMARK   53  A    between atoms: _135  and  _136
REMARK   54  A    between atoms: _136  and  _137
REMARK   55  A    between atoms: _141  and  _143
REMARK   56  A    between atoms: _143  and  _144
REMARK   57  A    between atoms: _143  and  _146
REMARK   58  A    between atoms: _146  and  _147
REMARK   59  A    between atoms: _152  and  _153
REMARK   60  A    between atoms: _155  and  _157
REMARK   61  A    between atoms: _157  and  _158
REMARK   62  A    between atoms: _157  and  _160
REMARK   63  A    between atoms: _160  and  _161
REMARK   64  A    between atoms: _166  and  _168
REMARK   65  A    between atoms: _168  and  _169
REMARK   66  A    between atoms: _168  and  _171
REMARK   67  A    between atoms: _171  and  _172
REMARK   68  A    between atoms: _182  and  _184
REMARK   69  A    between atoms: _184  and  _185
REMARK   70  A    between atoms: _184  and  _187
REMARK   71  A    between atoms: _187  and  _188
REMARK   72  A    between atoms: _188  and  _189
REMARK   73  A    between atoms: _189  and  _190
REMARK   74  A    between atoms: _199  and  _201
REMARK   75  A    between atoms: _201  and  _202
REMARK   76  A    between atoms: _201  and  _204
REMARK   77  A    between atoms: _204  and  _205
REMARK   78  A    between atoms: _205  and  _206
REMARK   79  A    between atoms: _209  and  _211
REMARK   80  A    between atoms: _211  and  _212
REMARK   81  A    between atoms: _211  and  _214
REMARK   82  A    between atoms: _214  and  _215
REMARK   83  A    between atoms: _220  and  _222
REMARK   84  A    between atoms: _222  and  _223
REMARK   85  A    between atoms: _222  and  _225
REMARK   86  A    between atoms: _225  and  _226
REMARK   87  A    between atoms: _229  and  _231
REMARK   88  A    between atoms: _231  and  _232
REMARK   89  A    between atoms: _231  and  _234
REMARK   90  A    between atoms: _234  and  _235
REMARK   91  A    between atoms: _238  and  _240
REMARK   92  A    between atoms: _240  and  _241
REMARK   93  A    between atoms: _240  and  _243
REMARK   94  A    between atoms: _243  and  _244
REMARK   95  A    between atoms: _247  and  _249
REMARK   96  A    between atoms: _249  and  _250
REMARK   97  A    between atoms: _249  and  _252
REMARK   98  A    between atoms: _255  and  _257
REMARK   99  A    between atoms: _257  and  _258
REMARK  100  A    between atoms: _257  and  _260
REMARK  101  A    between atoms: _260  and  _261
REMARK  102  A    between atoms: _266  and  _268
REMARK  103  A    between atoms: _268  and  _269
REMARK  104  A    between atoms: _268  and  _271
REMARK  105  A    between atoms: _271  and  _272
REMARK  106  A    between atoms: _272  and  _273
REMARK  107  A    between atoms: _276  and  _278
REMARK  108  A    between atoms: _278  and  _279
REMARK  109  A    between atoms: _278  and  _281
REMARK  110  A    between atoms: _281  and  _282
REMARK  111  A    between atoms: _285  and  _287
REMARK  112  A    between atoms: _287  and  _288
REMARK  113  A    between atoms: _287  and  _290
REMARK  114  A    between atoms: _290  and  _291
REMARK  115  A    between atoms: _294  and  _296
REMARK  116  A    between atoms: _296  and  _297
REMARK  117  A    between atoms: _296  and  _299
REMARK  118  A    between atoms: _299  and  _300
REMARK  119  A    between atoms: _303  and  _305
REMARK  120  A    between atoms: _305  and  _306
REMARK  121  A    between atoms: _305  and  _308
REMARK  122  A    between atoms: _308  and  _309
REMARK  123  A    between atoms: _309  and  _310
REMARK  124  A    between atoms: _310  and  _311
REMARK  125  A    between atoms: _320  and  _322
REMARK  126  A    between atoms: _322  and  _323
REMARK  127  A    between atoms: _322  and  _325
REMARK  128  A    between atoms: _325  and  _326
REMARK  129  A    between atoms: _326  and  _327
REMARK  130  A    between atoms: _329  and  _331
REMARK  131  A    between atoms: _331  and  _332
REMARK  132  A    between atoms: _335  and  _337
REMARK  133  A    between atoms: _337  and  _338
REMARK  134  A    between atoms: _340  and  _342
REMARK  135  A    between atoms: _342  and  _343
REMARK  136  A    between atoms: _342  and  _345
REMARK  137  A    between atoms: _345  and  _346
REMARK  138  A    between atoms: _349  and  _351
REMARK  139  A    between atoms: _351  and  _352
REMARK  140  A    between atoms: _355  and  _357
REMARK  141  A    between atoms: _357  and  _358
REMARK  142  A    between atoms: _357  and  _360
REMARK  143  A    between atoms: _360  and  _361
REMARK  144  A    between atoms: _361  and  _471
REMARK  145  A    between atoms: _362  and  _364
REMARK  146  A    between atoms: _364  and  _365
REMARK  147  A    between atoms: _364  and  _367
REMARK  148  A    between atoms: _367  and  _368
REMARK  149  A    between atoms: _368  and  _369
REMARK  150  A    between atoms: _372  and  _374
REMARK  151  A    between atoms: _374  and  _375
REMARK  152  A    between atoms: _377  and  _379
REMARK  153  A    between atoms: _379  and  _380
REMARK  154  A    between atoms: _379  and  _382
REMARK  155  A    between atoms: _382  and  _383
REMARK  156  A    between atoms: _386  and  _388
REMARK  157  A    between atoms: _388  and  _389
REMARK  158  A    between atoms: _388  and  _391
REMARK  159  A    between atoms: _391  and  _392
REMARK  160  A    between atoms: _394  and  _396
REMARK  161  A    between atoms: _396  and  _397
REMARK  162  A    between atoms: _399  and  _401
REMARK  163  A    between atoms: _401  and  _402
REMARK  164  A    between atoms: _404  and  _406
REMARK  165  A    between atoms: _406  and  _407
REMARK  166  A    between atoms: _406  and  _409
REMARK  167  A    between atoms: _409  and  _410
REMARK  168  A    between atoms: _413  and  _415
REMARK  169  A    between atoms: _415  and  _416
REMARK  170  A    between atoms: _415  and  _418
REMARK  171  A    between atoms: _421  and  _423
REMARK  172  A    between atoms: _423  and  _424
REMARK  173  A    between atoms: _423  and  _426
REMARK  174  A    between atoms: _426  and  _427
REMARK  175  A    between atoms: _429  and  _431
REMARK  176  A    between atoms: _431  and  _432
REMARK  177  A    between atoms: _431  and  _434
REMARK  178  A    between atoms: _434  and  _435
REMARK  179  A    between atoms: _445  and  _447
REMARK  180  A    between atoms: _447  and  _448
REMARK  181  A    between atoms: _450  and  _452
REMARK  182  A    between atoms: _452  and  _453
REMARK  183  A    between atoms: _452  and  _455
REMARK  184  A    between atoms: _455  and  _456
REMARK  185  A    between atoms: _456  and  _457
REMARK  186  A    between atoms: _460  and  _462
REMARK  187  A    between atoms: _462  and  _463
REMARK  188  A    between atoms: _465  and  _467
REMARK  189  A    between atoms: _467  and  _468
REMARK  190  A    between atoms: _467  and  _470
REMARK  191  A    between atoms: _470  and  _471
REMARK  192  A    between atoms: _472  and  _474
REMARK  193  A    between atoms: _474  and  _475
REMARK  194  A    between atoms: _474  and  _477
REMARK  195  A    between atoms: _477  and  _478
REMARK  196  A    between atoms: _481  and  _483
REMARK  197  A    between atoms: _483  and  _484
REMARK  198  A    between atoms: _483  and  _486
REMARK  199  A    between atoms: _486  and  _487
REMARK  200  A    between atoms: _487  and  _488
REMARK  201  A    between atoms: _488  and  _489
REMARK  202  A    between atoms: _498  and  _500
REMARK  203  A    between atoms: _500  and  _501
REMARK  204  A    between atoms: _500  and  _503
REMARK  205  A    between atoms: _503  and  _504
REMARK  206  A    between atoms: _504  and  _505
REMARK  207  A    between atoms: _505  and  _506
REMARK  208  A    between atoms: _506  and  _507
REMARK  209  A    between atoms: _511  and  _513
REMARK  210  A    between atoms: _513  and  _514
REMARK  211  A    between atoms: _513  and  _516
REMARK  212  A    between atoms: _516  and  _517
REMARK  213  A    between atoms: _522  and  _523
REMARK  214  A    between atoms: _525  and  _527
REMARK  215  A    between atoms: _527  and  _528
REMARK  216  A    between atoms: _530  and  _532
REMARK  217  A    between atoms: _532  and  _533
REMARK  218  A    between atoms: _532  and  _535
REMARK  219  A    between atoms: _535  and  _536
REMARK  220  A    between atoms: _542  and  _544
REMARK  221  A    between atoms: _544  and  _545
REMARK  222  A    between atoms: _544  and  _547
REMARK  223  A    between atoms: _547  and  _548
REMARK  224  A    between atoms: _553  and  _554
REMARK  225  A    between atoms: _556  and  _558
REMARK  226  A    between atoms: _558  and  _559
REMARK  227  A    between atoms: _558  and  _561
REMARK  228  A    between atoms: _561  and  _562
REMARK                            x       y       z     vdW  Elec       q    Type
REMARK                         _______ _______ _______ _____ _____    ______ ____
ROOT
ATOM      1  O   HOH     1     -21.258 -34.478  30.128  0.00  0.00    +0.000 OA
ENDROOT
TORSDOF 0
REMARK  Name = ../refined-set-2016/1d3d/1d3d_pocket.pdb
REMARK  228 active torsions:
REMARK  status: ('A' for Active; 'I' for Inactive)
REMARK    1  A    between atoms: _1  and  _5
REMARK    2  A    between atoms: _5  and  _6
REMARK    3  A    between atoms: _5  and  _8
REMARK    4  A    between atoms: _8  and  _9
REMARK    5  A    between atoms: _12  and  _14
REMARK    6  A    between atoms: _14  and  _15
REMARK    7  A    between atoms: _14  and  _17
REMARK    8  A    between atoms: _20  and  _22
REMARK    9  A    between atoms: _22  and  _23
REMARK   10  A    between atoms: _22  and  _25
REMARK   11  A    between atoms: _25  and  _26
REMARK   12  A    between atoms: _29  and  _31
REMARK   13  A    between atoms: _31  and  _32
REMARK   14  A    between atoms: _31  and  _34
REMARK   15  A    between atoms: _34  and  _35
REMARK   16  A    between atoms: _35  and  _65
REMARK   17  A    between atoms: _36  and  _38
REMARK   18  A    between atoms: _38  and  _39
REMARK   19  A    between atoms: _42  and  _44
REMARK   20  A    between atoms: _44  and  _45
REMARK   21  A    between atoms: _48  and  _50
REMARK   22  A    between atoms: _50  and  _51
REMARK   23  A    between atoms: _50  and  _53
REMARK   24  A    between atoms: _53  and  _54
REMARK   25  A    between atoms: _59  and  _61
REMARK   26  A    between atoms: _61  and  _62
REMARK   27  A    between atoms: _61  and  _64
REMARK   28  A    between atoms: _64  and  _65
REMARK   29  A    between atoms: _66  and  _68
REMARK   30  A    between atoms: _68  and  _69
REMARK   31  A    between atoms: _68  and  _71
REMARK   32  A    between atoms: _71  and  _72
REMARK   33  A    between atoms: _75  and  _77
REMARK   34  A    between atoms: _77  and  _78
REMARK   35  A    between atoms: _77  and  _80
REMARK   36  A    between atoms: _80  and  _81
REMARK   37  A    between atoms: _86  and  _87
REMARK   38  A    between atoms: _90  and  _91
REMARK   39  A    between atoms: _97  and  _98
REMARK   40  A    between atoms: _103  and  _105
REMARK   41  A    between atoms: _105  and  _106
REMARK   42  A    between atoms: _105  and  _108
REMARK   43  A    between atoms: _108  and  _109
REMARK   44  A    between atoms: _119  and  _121
REMARK   45  A    between atoms: _121  and  _122
REMARK   46  A    between atoms: _121  and  _124
REMARK   47  A    between atoms: _124  and  _125
REMARK   48  A    between atoms: _128  and  _130
REMARK   49  A    between atoms: _130  and  _131
REMARK   50  A    between atoms: _130  and  _133
REMARK   51  A    between atoms: _133  and  _134
REMARK   52  A    between atoms: _134  and  _135
REMARK   53  A    between atoms: _135  and  _136
REMARK   54  A    between atoms: _136  and  _137
REMARK   55  A    between atoms: _141  and  _143
REMARK   56  A    between atoms: _143  and  _144
REMARK   57  A    between atoms: _143  and  _146
REMARK   58  A    between atoms: _146  and  _147
REMARK   59  A    between atoms: _152  and  _153
REMARK   60  A    between atoms: _155  and  _157
REMARK   61  A    between atoms: _157  and  _158
REMARK   62  A    between atoms: _157  and  _160
REMARK   63  A    between atoms: _160  and  _161
REMARK   64  A    between atoms: _166  and  _168
REMARK   65  A    between atoms: _168  and  _169
REMARK   66  A    between atoms: _168  and  _171
REMARK   67  A    between atoms: _171  and  _172
REMARK   68  A    between atoms: _182  and  _184
REMARK   69  A    between atoms: _184  and  _185
REMARK   70  A    between atoms: _184  and  _187
REMARK   71  A    between atoms: _187  and  _188
REMARK   72  A    between atoms: _188  and  _189
REMARK   73  A    between atoms: _189  and  _190
REMARK   74  A    between atoms: _199  and  _201
REMARK   75  A    between atoms: _201  and  _202
REMARK   76  A    between atoms: _201  and  _204
REMARK   77  A    between atoms: _204  and  _205
REMARK   78  A    between atoms: _205  and  _206
REMARK   79  A    between atoms: _209  and  _211
REMARK   80  A    between atoms: _211  and  _212
REMARK   81  A    between atoms: _211  and  _214
REMARK   82  A    between atoms: _214  and  _215
REMARK   83  A    between atoms: _220  and  _222
REMARK   84  A    between atoms: _222  and  _223
REMARK   85  A    between atoms: _222  and  _225
REMARK   86  A    between atoms: _225  and  _226
REMARK   87  A    between atoms: _229  and  _231
REMARK   88  A    between atoms: _231  and  _232
REMARK   89  A    between atoms: _231  and  _234
REMARK   90  A    between atoms: _234  and  _235
REMARK   91  A    between atoms: _238  and  _240
REMARK   92  A    between atoms: _240  and  _241
REMARK   93  A    between atoms: _240  and  _243
REMARK   94  A    between atoms: _243  and  _244
REMARK   95  A    between atoms: _247  and  _249
REMARK   96  A    between atoms: _249  and  _250
REMARK   97  A    between atoms: _249  and  _252
REMARK   98  A    between atoms: _255  and  _257
REMARK   99  A    between atoms: _257  and  _258
REMARK  100  A    between atoms: _257  and  _260
REMARK  101  A    between atoms: _260  and  _261
REMARK  102  A    between atoms: _266  and  _268
REMARK  103  A    between atoms: _268  and  _269
REMARK  104  A    between atoms: _268  and  _271
REMARK  105  A    between atoms: _271  and  _272
REMARK  106  A    between atoms: _272  and  _273
REMARK  107  A    between atoms: _276  and  _278
REMARK  108  A    between atoms: _278  and  _279
REMARK  109  A    between atoms: _278  and  _281
REMARK  110  A    between atoms: _281  and  _282
REMARK  111  A    between atoms: _285  and  _287
REMARK  112  A    between atoms: _287  and  _288
REMARK  113  A    between atoms: _287  and  _290
REMARK  114  A    between atoms: _290  and  _291
REMARK  115  A    between atoms: _294  and  _296
REMARK  116  A    between atoms: _296  and  _297
REMARK  117  A    between atoms: _296  and  _299
REMARK  118  A    between atoms: _299  and  _300
REMARK  119  A    between atoms: _303  and  _305
REMARK  120  A    between atoms: _305  and  _306
REMARK  121  A    between atoms: _305  and  _308
REMARK  122  A    between atoms: _308  and  _309
REMARK  123  A    between atoms: _309  and  _310
REMARK  124  A    between atoms: _310  and  _311
REMARK  125  A    between atoms: _320  and  _322
REMARK  126  A    between atoms: _322  and  _323
REMARK  127  A    between atoms: _322  and  _325
REMARK  128  A    between atoms: _325  and  _326
REMARK  129  A    between atoms: _326  and  _327
REMARK  130  A    between atoms: _329  and  _331
REMARK  131  A    between atoms: _331  and  _332
REMARK  132  A    between atoms: _335  and  _337
REMARK  133  A    between atoms: _337  and  _338
REMARK  134  A    between atoms: _340  and  _342
REMARK  135  A    between atoms: _342  and  _343
REMARK  136  A    between atoms: _342  and  _345
REMARK  137  A    between atoms: _345  and  _346
REMARK  138  A    between atoms: _349  and  _351
REMARK  139  A    between atoms: _351  and  _352
REMARK  140  A    between atoms: _355  and  _357
REMARK  141  A    between atoms: _357  and  _358
REMARK  142  A    between atoms: _357  and  _360
REMARK  143  A    between atoms: _360  and  _361
REMARK  144  A    between atoms: _361  and  _471
REMARK  145  A    between atoms: _362  and  _364
REMARK  146  A    between atoms: _364  and  _365
REMARK  147  A    between atoms: _364  and  _367
REMARK  148  A    between atoms: _367  and  _368
REMARK  149  A    between atoms: _368  and  _369
REMARK  150  A    between atoms: _372  and  _374
REMARK  151  A    between atoms: _374  and  _375
REMARK  152  A    between atoms: _377  and  _379
REMARK  153  A    between atoms: _379  and  _380
REMARK  154  A    between atoms: _379  and  _382
REMARK  155  A    between atoms: _382  and  _383
REMARK  156  A    between atoms: _386  and  _388
REMARK  157  A    between atoms: _388  and  _389
REMARK  158  A    between atoms: _388  and  _391
REMARK  159  A    between atoms: _391  and  _392
REMARK  160  A    between atoms: _394  and  _396
REMARK  161  A    between atoms: _396  and  _397
REMARK  162  A    between atoms: _399  and  _401
REMARK  163  A    between atoms: _401  and  _402
REMARK  164  A    between atoms: _404  and  _406
REMARK  165  A    between atoms: _406  and  _407
REMARK  166  A    between atoms: _406  and  _409
REMARK  167  A    between atoms: _409  and  _410
REMARK  168  A    between atoms: _413  and  _415
REMARK  169  A    between atoms: _415  and  _416
REMARK  170  A    between atoms: _415  and  _418
REMARK  171  A    between atoms: _421  and  _423
REMARK  172  A    between atoms: _423  and  _424
REMARK  173  A    between atoms: _423  and  _426
REMARK  174  A    between atoms: _426  and  _427
REMARK  175  A    between atoms: _429  and  _431
REMARK  176  A    between atoms: _431  and  _432
REMARK  177  A    between atoms: _431  and  _434
REMARK  178  A    between atoms: _434  and  _435
REMARK  179  A    between atoms: _445  and  _447
REMARK  180  A    between atoms: _447  and  _448
REMARK  181  A    between atoms: _450  and  _452
REMARK  182  A    between atoms: _452  and  _453
REMARK  183  A    between atoms: _452  and  _455
REMARK  184  A    between atoms: _455  and  _456
REMARK  185  A    between atoms: _456  and  _457
REMARK  186  A    between atoms: _460  and  _462
REMARK  187  A    between atoms: _462  and  _463
REMARK  188  A    between atoms: _465  and  _467
REMARK  189  A    between atoms: _467  and  _468
REMARK  190  A    between atoms: _467  and  _470
REMARK  191  A    between atoms: _470  and  _471
REMARK  192  A    between atoms: _472  and  _474
REMARK  193  A    between atoms: _474  and  _475
REMARK  194  A    between atoms: _474  and  _477
REMARK  195  A    between atoms: _477  and  _478
REMARK  196  A    between atoms: _481  and  _483
REMARK  197  A    between atoms: _483  and  _484
REMARK  198  A    between atoms: _483  and  _486
REMARK  199  A    between atoms: _486  and  _487
REMARK  200  A    between atoms: _487  and  _488
REMARK  201  A    between atoms: _488  and  _489
REMARK  202  A    between atoms: _498  and  _500
REMARK  203  A    between atoms: _500  and  _501
REMARK  204  A    between atoms: _500  and  _503
REMARK  205  A    between atoms: _503  and  _504
REMARK  206  A    between atoms: _504  and  _505
REMARK  207  A    between atoms: _505  and  _506
REMARK  208  A    between atoms: _506  and  _507
REMARK  209  A    between atoms: _511  and  _513
REMARK  210  A    between atoms: _513  and  _514
REMARK  211  A    between atoms: _513  and  _516
REMARK  212  A    between atoms: _516  and  _517
REMARK  213  A    between atoms: _522  and  _523
REMARK  214  A    between atoms: _525  and  _527
REMARK  215  A    between atoms: _527  and  _528
REMARK  216  A    between atoms: _530  and  _532
REMARK  217  A    between atoms: _532  and  _533
REMARK  218  A    between atoms: _532  and  _535
REMARK  219  A    between atoms: _535  and  _536
REMARK  220  A    between atoms: _542  and  _544
REMARK  221  A    between atoms: _544  and  _545
REMARK  222  A    between atoms: _544  and  _547
REMARK  223  A    between atoms: _547  and  _548
REMARK  224  A    between atoms: _553  and  _554
REMARK  225  A    between atoms: _556  and  _558
REMARK  226  A    between atoms: _558  and  _559
REMARK  227  A    between atoms: _558  and  _561
REMARK  228  A    between atoms: _561  and  _562
REMARK                            x       y       z     vdW  Elec       q    Type
REMARK                         _______ _______ _______ _____ _____    ______ ____
ROOT
ATOM      1  O   HOH     1     -24.532 -37.504  17.862  0.00  0.00    +0.000 OA
ENDROOT
TORSDOF 0
REMARK  Name = ../refined-set-2016/1d3d/1d3d_pocket.pdb
REMARK  228 active torsions:
REMARK  status: ('A' for Active; 'I' for Inactive)
REMARK    1  A    between atoms: _1  and  _5
REMARK    2  A    between atoms: _5  and  _6
REMARK    3  A    between atoms: _5  and  _8
REMARK    4  A    between atoms: _8  and  _9
REMARK    5  A    between atoms: _12  and  _14
REMARK    6  A    between atoms: _14  and  _15
REMARK    7  A    between atoms: _14  and  _17
REMARK    8  A    between atoms: _20  and  _22
REMARK    9  A    between atoms: _22  and  _23
REMARK   10  A    between atoms: _22  and  _25
REMARK   11  A    between atoms: _25  and  _26
REMARK   12  A    between atoms: _29  and  _31
REMARK   13  A    between atoms: _31  and  _32
REMARK   14  A    between atoms: _31  and  _34
REMARK   15  A    between atoms: _34  and  _35
REMARK   16  A    between atoms: _35  and  _65
REMARK   17  A    between atoms: _36  and  _38
REMARK   18  A    between atoms: _38  and  _39
REMARK   19  A    between atoms: _42  and  _44
REMARK   20  A    between atoms: _44  and  _45
REMARK   21  A    between atoms: _48  and  _50
REMARK   22  A    between atoms: _50  and  _51
REMARK   23  A    between atoms: _50  and  _53
REMARK   24  A    between atoms: _53  and  _54
REMARK   25  A    between atoms: _59  and  _61
REMARK   26  A    between atoms: _61  and  _62
REMARK   27  A    between atoms: _61  and  _64
REMARK   28  A    between atoms: _64  and  _65
REMARK   29  A    between atoms: _66  and  _68
REMARK   30  A    between atoms: _68  and  _69
REMARK   31  A    between atoms: _68  and  _71
REMARK   32  A    between atoms: _71  and  _72
REMARK   33  A    between atoms: _75  and  _77
REMARK   34  A    between atoms: _77  and  _78
REMARK   35  A    between atoms: _77  and  _80
REMARK   36  A    between atoms: _80  and  _81
REMARK   37  A    between atoms: _86  and  _87
REMARK   38  A    between atoms: _90  and  _91
REMARK   39  A    between atoms: _97  and  _98
REMARK   40  A    between atoms: _103  and  _105
REMARK   41  A    between atoms: _105  and  _106
REMARK   42  A    between atoms: _105  and  _108
REMARK   43  A    between atoms: _108  and  _109
REMARK   44  A    between atoms: _119  and  _121
REMARK   45  A    between atoms: _121  and  _122
REMARK   46  A    between atoms: _121  and  _124
REMARK   47  A    between atoms: _124  and  _125
REMARK   48  A    between atoms: _128  and  _130
REMARK   49  A    between atoms: _130  and  _131
REMARK   50  A    between atoms: _130  and  _133
REMARK   51  A    between atoms: _133  and  _134
REMARK   52  A    between atoms: _134  and  _135
REMARK   53  A    between atoms: _135  and  _136
REMARK   54  A    between atoms: _136  and  _137
REMARK   55  A    between atoms: _141  and  _143
REMARK   56  A    between atoms: _143  and  _144
REMARK   57  A    between atoms: _143  and  _146
REMARK   58  A    between atoms: _146  and  _147
REMARK   59  A    between atoms: _152  and  _153
REMARK   60  A    between atoms: _155  and  _157
REMARK   61  A    between atoms: _157  and  _158
REMARK   62  A    between atoms: _157  and  _160
REMARK   63  A    between atoms: _160  and  _161
REMARK   64  A    between atoms: _166  and  _168
REMARK   65  A    between atoms: _168  and  _169
REMARK   66  A    between atoms: _168  and  _171
REMARK   67  A    between atoms: _171  and  _172
REMARK   68  A    between atoms: _182  and  _184
REMARK   69  A    between atoms: _184  and  _185
REMARK   70  A    between atoms: _184  and  _187
REMARK   71  A    between atoms: _187  and  _188
REMARK   72  A    between atoms: _188  and  _189
REMARK   73  A    between atoms: _189  and  _190
REMARK   74  A    between atoms: _199  and  _201
REMARK   75  A    between atoms: _201  and  _202
REMARK   76  A    between atoms: _201  and  _204
REMARK   77  A    between atoms: _204  and  _205
REMARK   78  A    between atoms: _205  and  _206
REMARK   79  A    between atoms: _209  and  _211
REMARK   80  A    between atoms: _211  and  _212
REMARK   81  A    between atoms: _211  and  _214
REMARK   82  A    between atoms: _214  and  _215
REMARK   83  A    between atoms: _220  and  _222
REMARK   84  A    between atoms: _222  and  _223
REMARK   85  A    between atoms: _222  and  _225
REMARK   86  A    between atoms: _225  and  _226
REMARK   87  A    between atoms: _229  and  _231
REMARK   88  A    between atoms: _231  and  _232
REMARK   89  A    between atoms: _231  and  _234
REMARK   90  A    between atoms: _234  and  _235
REMARK   91  A    between atoms: _238  and  _240
REMARK   92  A    between atoms: _240  and  _241
REMARK   93  A    between atoms: _240  and  _243
REMARK   94  A    between atoms: _243  and  _244
REMARK   95  A    between atoms: _247  and  _249
REMARK   96  A    between atoms: _249  and  _250
REMARK   97  A    between atoms: _249  and  _252
REMARK   98  A    between atoms: _255  and  _257
REMARK   99  A    between atoms: _257  and  _258
REMARK  100  A    between atoms: _257  and  _260
REMARK  101  A    between atoms: _260  and  _261
REMARK  102  A    between atoms: _266  and  _268
REMARK  103  A    between atoms: _268  and  _269
REMARK  104  A    between atoms: _268  and  _271
REMARK  105  A    between atoms: _271  and  _272
REMARK  106  A    between atoms: _272  and  _273
REMARK  107  A    between atoms: _276  and  _278
REMARK  108  A    between atoms: _278  and  _279
REMARK  109  A    between atoms: _278  and  _281
REMARK  110  A    between atoms: _281  and  _282
REMARK  111  A    between atoms: _285  and  _287
REMARK  112  A    between atoms: _287  and  _288
REMARK  113  A    between atoms: _287  and  _290
REMARK  114  A    between atoms: _290  and  _291
REMARK  115  A    between atoms: _294  and  _296
REMARK  116  A    between atoms: _296  and  _297
REMARK  117  A    between atoms: _296  and  _299
REMARK  118  A    between atoms: _299  and  _300
REMARK  119  A    between atoms: _303  and  _305
REMARK  120  A    between atoms: _305  and  _306
REMARK  121  A    between atoms: _305  and  _308
REMARK  122  A    between atoms: _308  and  _309
REMARK  123  A    between atoms: _309  and  _310
REMARK  124  A    between atoms: _310  and  _311
REMARK  125  A    between atoms: _320  and  _322
REMARK  126  A    between atoms: _322  and  _323
REMARK  127  A    between atoms: _322  and  _325
REMARK  128  A    between atoms: _325  and  _326
REMARK  129  A    between atoms: _326  and  _327
REMARK  130  A    between atoms: _329  and  _331
REMARK  131  A    between atoms: _331  and  _332
REMARK  132  A    between atoms: _335  and  _337
REMARK  133  A    between atoms: _337  and  _338
REMARK  134  A    between atoms: _340  and  _342
REMARK  135  A    between atoms: _342  and  _343
REMARK  136  A    between atoms: _342  and  _345
REMARK  137  A    between atoms: _345  and  _346
REMARK  138  A    between atoms: _349  and  _351
REMARK  139  A    between atoms: _351  and  _352
REMARK  140  A    between atoms: _355  and  _357
REMARK  141  A    between atoms: _357  and  _358
REMARK  142  A    between atoms: _357  and  _360
REMARK  143  A    between atoms: _360  and  _361
REMARK  144  A    between atoms: _361  and  _471
REMARK  145  A    between atoms: _362  and  _364
REMARK  146  A    between atoms: _364  and  _365
REMARK  147  A    between atoms: _364  and  _367
REMARK  148  A    between atoms: _367  and  _368
REMARK  149  A    between atoms: _368  and  _369
REMARK  150  A    between atoms: _372  and  _374
REMARK  151  A    between atoms: _374  and  _375
REMARK  152  A    between atoms: _377  and  _379
REMARK  153  A    between atoms: _379  and  _380
REMARK  154  A    between atoms: _379  and  _382
REMARK  155  A    between atoms: _382  and  _383
REMARK  156  A    between atoms: _386  and  _388
REMARK  157  A    between atoms: _388  and  _389
REMARK  158  A    between atoms: _388  and  _391
REMARK  159  A    between atoms: _391  and  _392
REMARK  160  A    between atoms: _394  and  _396
REMARK  161  A    between atoms: _396  and  _397
REMARK  162  A    between atoms: _399  and  _401
REMARK  163  A    between atoms: _401  and  _402
REMARK  164  A    between atoms: _404  and  _406
REMARK  165  A    between atoms: _406  and  _407
REMARK  166  A    between atoms: _406  and  _409
REMARK  167  A    between atoms: _409  and  _410
REMARK  168  A    between atoms: _413  and  _415
REMARK  169  A    between atoms: _415  and  _416
REMARK  170  A    between atoms: _415  and  _418
REMARK  171  A    between atoms: _421  and  _423
REMARK  172  A    between atoms: _423  and  _424
REMARK  173  A    between atoms: _423  and  _426
REMARK  174  A    between atoms: _426  and  _427
REMARK  175  A    between atoms: _429  and  _431
REMARK  176  A    between atoms: _431  and  _432
REMARK  177  A    between atoms: _431  and  _434
REMARK  178  A    between atoms: _434  and  _435
REMARK  179  A    between atoms: _445  and  _447
REMARK  180  A    between atoms: _447  and  _448
REMARK  181  A    between atoms: _450  and  _452
REMARK  182  A    between atoms: _452  and  _453
REMARK  183  A    between atoms: _452  and  _455
REMARK  184  A    between atoms: _455  and  _456
REMARK  185  A    between atoms: _456  and  _457
REMARK  186  A    between atoms: _460  and  _462
REMARK  187  A    between atoms: _462  and  _463
REMARK  188  A    between atoms: _465  and  _467
REMARK  189  A    between atoms: _467  and  _468
REMARK  190  A    between atoms: _467  and  _470
REMARK  191  A    between atoms: _470  and  _471
REMARK  192  A    between atoms: _472  and  _474
REMARK  193  A    between atoms: _474  and  _475
REMARK  194  A    between atoms: _474  and  _477
REMARK  195  A    between atoms: _477  and  _478
REMARK  196  A    between atoms: _481  and  _483
REMARK  197  A    between atoms: _483  and  _484
REMARK  198  A    between atoms: _483  and  _486
REMARK  199  A    between atoms: _486  and  _487
REMARK  200  A    between atoms: _487  and  _488
REMARK  201  A    between atoms: _488  and  _489
REMARK  202  A    between atoms: _498  and  _500
REMARK  203  A    between atoms: _500  and  _501
REMARK  204  A    between atoms: _500  and  _503
REMARK  205  A    between atoms: _503  and  _504
REMARK  206  A    between atoms: _504  and  _505
REMARK  207  A    between atoms: _505  and  _506
REMARK  208  A    between atoms: _506  and  _507
REMARK  209  A    between atoms: _511  and  _513
REMARK  210  A    between atoms: _513  and  _514
REMARK  211  A    between atoms: _513  and  _516
REMARK  212  A    between atoms: _516  and  _517
REMARK  213  A    between atoms: _522  and  _523
REMARK  214  A    between atoms: _525  and  _527
REMARK  215  A    between atoms: _527  and  _528
REMARK  216  A    between atoms: _530  and  _532
REMARK  217  A    between atoms: _532  and  _533
REMARK  218  A    between atoms: _532  and  _535
REMARK  219  A    between atoms: _535  and  _536
REMARK  220  A    between atoms: _542  and  _544
REMARK  221  A    between atoms: _544  and  _545
REMARK  222  A    between atoms: _544  and  _547
REMARK  223  A    between atoms: _547  and  _548
REMARK  224  A    between atoms: _553  and  _554
REMARK  225  A    between atoms: _556  and  _558
REMARK  226  A    between atoms: _558  and  _559
REMARK  227  A    between atoms: _558  and  _561
REMARK  228  A    between atoms: _561  and  _562
REMARK                            x       y       z     vdW  Elec       q    Type
REMARK                         _______ _______ _______ _____ _____    ______ ____
ROOT
ATOM      1  O   HOH     1     -10.118 -35.252  31.818  0.00  0.00    +0.000 OA
ENDROOT
TORSDOF 0
REMARK  Name = ../refined-set-2016/1d3d/1d3d_pocket.pdb
REMARK  228 active torsions:
REMARK  status: ('A' for Active; 'I' for Inactive)
REMARK    1  A    between atoms: _1  and  _5
REMARK    2  A    between atoms: _5  and  _6
REMARK    3  A    between atoms: _5  and  _8
REMARK    4  A    between atoms: _8  and  _9
REMARK    5  A    between atoms: _12  and  _14
REMARK    6  A    between atoms: _14  and  _15
REMARK    7  A    between atoms: _14  and  _17
REMARK    8  A    between atoms: _20  and  _22
REMARK    9  A    between atoms: _22  and  _23
REMARK   10  A    between atoms: _22  and  _25
REMARK   11  A    between atoms: _25  and  _26
REMARK   12  A    between atoms: _29  and  _31
REMARK   13  A    between atoms: _31  and  _32
REMARK   14  A    between atoms: _31  and  _34
REMARK   15  A    between atoms: _34  and  _35
REMARK   16  A    between atoms: _35  and  _65
REMARK   17  A    between atoms: _36  and  _38
REMARK   18  A    between atoms: _38  and  _39
REMARK   19  A    between atoms: _42  and  _44
REMARK   20  A    between atoms: _44  and  _45
REMARK   21  A    between atoms: _48  and  _50
REMARK   22  A    between atoms: _50  and  _51
REMARK   23  A    between atoms: _50  and  _53
REMARK   24  A    between atoms: _53  and  _54
REMARK   25  A    between atoms: _59  and  _61
REMARK   26  A    between atoms: _61  and  _62
REMARK   27  A    between atoms: _61  and  _64
REMARK   28  A    between atoms: _64  and  _65
REMARK   29  A    between atoms: _66  and  _68
REMARK   30  A    between atoms: _68  and  _69
REMARK   31  A    between atoms: _68  and  _71
REMARK   32  A    between atoms: _71  and  _72
REMARK   33  A    between atoms: _75  and  _77
REMARK   34  A    between atoms: _77  and  _78
REMARK   35  A    between atoms: _77  and  _80
REMARK   36  A    between atoms: _80  and  _81
REMARK   37  A    between atoms: _86  and  _87
REMARK   38  A    between atoms: _90  and  _91
REMARK   39  A    between atoms: _97  and  _98
REMARK   40  A    between atoms: _103  and  _105
REMARK   41  A    between atoms: _105  and  _106
REMARK   42  A    between atoms: _105  and  _108
REMARK   43  A    between atoms: _108  and  _109
REMARK   44  A    between atoms: _119  and  _121
REMARK   45  A    between atoms: _121  and  _122
REMARK   46  A    between atoms: _121  and  _124
REMARK   47  A    between atoms: _124  and  _125
REMARK   48  A    between atoms: _128  and  _130
REMARK   49  A    between atoms: _130  and  _131
REMARK   50  A    between atoms: _130  and  _133
REMARK   51  A    between atoms: _133  and  _134
REMARK   52  A    between atoms: _134  and  _135
REMARK   53  A    between atoms: _135  and  _136
REMARK   54  A    between atoms: _136  and  _137
REMARK   55  A    between atoms: _141  and  _143
REMARK   56  A    between atoms: _143  and  _144
REMARK   57  A    between atoms: _143  and  _146
REMARK   58  A    between atoms: _146  and  _147
REMARK   59  A    between atoms: _152  and  _153
REMARK   60  A    between atoms: _155  and  _157
REMARK   61  A    between atoms: _157  and  _158
REMARK   62  A    between atoms: _157  and  _160
REMARK   63  A    between atoms: _160  and  _161
REMARK   64  A    between atoms: _166  and  _168
REMARK   65  A    between atoms: _168  and  _169
REMARK   66  A    between atoms: _168  and  _171
REMARK   67  A    between atoms: _171  and  _172
REMARK   68  A    between atoms: _182  and  _184
REMARK   69  A    between atoms: _184  and  _185
REMARK   70  A    between atoms: _184  and  _187
REMARK   71  A    between atoms: _187  and  _188
REMARK   72  A    between atoms: _188  and  _189
REMARK   73  A    between atoms: _189  and  _190
REMARK   74  A    between atoms: _199  and  _201
REMARK   75  A    between atoms: _201  and  _202
REMARK   76  A    between atoms: _201  and  _204
REMARK   77  A    between atoms: _204  and  _205
REMARK   78  A    between atoms: _205  and  _206
REMARK   79  A    between atoms: _209  and  _211
REMARK   80  A    between atoms: _211  and  _212
REMARK   81  A    between atoms: _211  and  _214
REMARK   82  A    between atoms: _214  and  _215
REMARK   83  A    between atoms: _220  and  _222
REMARK   84  A    between atoms: _222  and  _223
REMARK   85  A    between atoms: _222  and  _225
REMARK   86  A    between atoms: _225  and  _226
REMARK   87  A    between atoms: _229  and  _231
REMARK   88  A    between atoms: _231  and  _232
REMARK   89  A    between atoms: _231  and  _234
REMARK   90  A    between atoms: _234  and  _235
REMARK   91  A    between atoms: _238  and  _240
REMARK   92  A    between atoms: _240  and  _241
REMARK   93  A    between atoms: _240  and  _243
REMARK   94  A    between atoms: _243  and  _244
REMARK   95  A    between atoms: _247  and  _249
REMARK   96  A    between atoms: _249  and  _250
REMARK   97  A    between atoms: _249  and  _252
REMARK   98  A    between atoms: _255  and  _257
REMARK   99  A    between atoms: _257  and  _258
REMARK  100  A    between atoms: _257  and  _260
REMARK  101  A    between atoms: _260  and  _261
REMARK  102  A    between atoms: _266  and  _268
REMARK  103  A    between atoms: _268  and  _269
REMARK  104  A    between atoms: _268  and  _271
REMARK  105  A    between atoms: _271  and  _272
REMARK  106  A    between atoms: _272  and  _273
REMARK  107  A    between atoms: _276  and  _278
REMARK  108  A    between atoms: _278  and  _279
REMARK  109  A    between atoms: _278  and  _281
REMARK  110  A    between atoms: _281  and  _282
REMARK  111  A    between atoms: _285  and  _287
REMARK  112  A    between atoms: _287  and  _288
REMARK  113  A    between atoms: _287  and  _290
REMARK  114  A    between atoms: _290  and  _291
REMARK  115  A    between atoms: _294  and  _296
REMARK  116  A    between atoms: _296  and  _297
REMARK  117  A    between atoms: _296  and  _299
REMARK  118  A    between atoms: _299  and  _300
REMARK  119  A    between atoms: _303  and  _305
REMARK  120  A    between atoms: _305  and  _306
REMARK  121  A    between atoms: _305  and  _308
REMARK  122  A    between atoms: _308  and  _309
REMARK  123  A    between atoms: _309  and  _310
REMARK  124  A    between atoms: _310  and  _311
REMARK  125  A    between atoms: _320  and  _322
REMARK  126  A    between atoms: _322  and  _323
REMARK  127  A    between atoms: _322  and  _325
REMARK  128  A    between atoms: _325  and  _326
REMARK  129  A    between atoms: _326  and  _327
REMARK  130  A    between atoms: _329  and  _331
REMARK  131  A    between atoms: _331  and  _332
REMARK  132  A    between atoms: _335  and  _337
REMARK  133  A    between atoms: _337  and  _338
REMARK  134  A    between atoms: _340  and  _342
REMARK  135  A    between atoms: _342  and  _343
REMARK  136  A    between atoms: _342  and  _345
REMARK  137  A    between atoms: _345  and  _346
REMARK  138  A    between atoms: _349  and  _351
REMARK  139  A    between atoms: _351  and  _352
REMARK  140  A    between atoms: _355  and  _357
REMARK  141  A    between atoms: _357  and  _358
REMARK  142  A    between atoms: _357  and  _360
REMARK  143  A    between atoms: _360  and  _361
REMARK  144  A    between atoms: _361  and  _471
REMARK  145  A    between atoms: _362  and  _364
REMARK  146  A    between atoms: _364  and  _365
REMARK  147  A    between atoms: _364  and  _367
REMARK  148  A    between atoms: _367  and  _368
REMARK  149  A    between atoms: _368  and  _369
REMARK  150  A    between atoms: _372  and  _374
REMARK  151  A    between atoms: _374  and  _375
REMARK  152  A    between atoms: _377  and  _379
REMARK  153  A    between atoms: _379  and  _380
REMARK  154  A    between atoms: _379  and  _382
REMARK  155  A    between atoms: _382  and  _383
REMARK  156  A    between atoms: _386  and  _388
REMARK  157  A    between atoms: _388  and  _389
REMARK  158  A    between atoms: _388  and  _391
REMARK  159  A    between atoms: _391  and  _392
REMARK  160  A    between atoms: _394  and  _396
REMARK  161  A    between atoms: _396  and  _397
REMARK  162  A    between atoms: _399  and  _401
REMARK  163  A    between atoms: _401  and  _402
REMARK  164  A    between atoms: _404  and  _406
REMARK  165  A    between atoms: _406  and  _407
REMARK  166  A    between atoms: _406  and  _409
REMARK  167  A    between atoms: _409  and  _410
REMARK  168  A    between atoms: _413  and  _415
REMARK  169  A    between atoms: _415  and  _416
REMARK  170  A    between atoms: _415  and  _418
REMARK  171  A    between atoms: _421  and  _423
REMARK  172  A    between atoms: _423  and  _424
REMARK  173  A    between atoms: _423  and  _426
REMARK  174  A    between atoms: _426  and  _427
REMARK  175  A    between atoms: _429  and  _431
REMARK  176  A    between atoms: _431  and  _432
REMARK  177  A    between atoms: _431  and  _434
REMARK  178  A    between atoms: _434  and  _435
REMARK  179  A    between atoms: _445  and  _447
REMARK  180  A    between atoms: _447  and  _448
REMARK  181  A    between atoms: _450  and  _452
REMARK  182  A    between atoms: _452  and  _453
REMARK  183  A    between atoms: _452  and  _455
REMARK  184  A    between atoms: _455  and  _456
REMARK  185  A    between atoms: _456  and  _457
REMARK  186  A    between atoms: _460  and  _462
REMARK  187  A    between atoms: _462  and  _463
REMARK  188  A    between atoms: _465  and  _467
REMARK  189  A    between atoms: _467  and  _468
REMARK  190  A    between atoms: _467  and  _470
REMARK  191  A    between atoms: _470  and  _471
REMARK  192  A    between atoms: _472  and  _474
REMARK  193  A    between atoms: _474  and  _475
REMARK  194  A    between atoms: _474  and  _477
REMARK  195  A    between atoms: _477  and  _478
REMARK  196  A    between atoms: _481  and  _483
REMARK  197  A    between atoms: _483  and  _484
REMARK  198  A    between atoms: _483  and  _486
REMARK  199  A    between atoms: _486  and  _487
REMARK  200  A    between atoms: _487  and  _488
REMARK  201  A    between atoms: _488  and  _489
REMARK  202  A    between atoms: _498  and  _500
REMARK  203  A    between atoms: _500  and  _501
REMARK  204  A    between atoms: _500  and  _503
REMARK  205  A    between atoms: _503  and  _504
REMARK  206  A    between atoms: _504  and  _505
REMARK  207  A    between atoms: _505  and  _506
REMARK  208  A    between atoms: _506  and  _507
REMARK  209  A    between atoms: _511  and  _513
REMARK  210  A    between atoms: _513  and  _514
REMARK  211  A    between atoms: _513  and  _516
REMARK  212  A    between atoms: _516  and  _517
REMARK  213  A    between atoms: _522  and  _523
REMARK  214  A    between atoms: _525  and  _527
REMARK  215  A    between atoms: _527  and  _528
REMARK  216  A    between atoms: _530  and  _532
REMARK  217  A    between atoms: _532  and  _533
REMARK  218  A    between atoms: _532  and  _535
REMARK  219  A    between atoms: _535  and  _536
REMARK  220  A    between atoms: _542  and  _544
REMARK  221  A    between atoms: _544  and  _545
REMARK  222  A    between atoms: _544  and  _547
REMARK  223  A    between atoms: _547  and  _548
REMARK  224  A    between atoms: _553  and  _554
REMARK  225  A    between atoms: _556  and  _558
REMARK  226  A    between atoms: _558  and  _559
REMARK  227  A    between atoms: _558  and  _561
REMARK  228  A    between atoms: _561  and  _562
REMARK                            x       y       z     vdW  Elec       q    Type
REMARK                         _______ _______ _______ _____ _____    ______ ____
ROOT
ATOM      1  O   HOH     1     -17.493 -35.812  25.274  0.00  0.00    +0.000 OA
ENDROOT
TORSDOF 0
