REMARK  Name = ../refined-set-2016/3qnd/3qnd_pocket.pdb
REMARK  109 active torsions:
REMARK  status: ('A' for Active; 'I' for Inactive)
REMARK    1  A    between atoms: _1  and  _3
REMARK    2  A    between atoms: _3  and  _4
REMARK    3  A    between atoms: _3  and  _6
REMARK    4  A    between atoms: _9  and  _11
REMARK    5  A    between atoms: _11  and  _12
REMARK    6  A    between atoms: _11  and  _14
REMARK    7  A    between atoms: _14  and  _15
REMARK    8  A    between atoms: _20  and  _21
REMARK    9  A    between atoms: _23  and  _25
REMARK   10  A    between atoms: _25  and  _26
REMARK   11  A    between atoms: _28  and  _30
REMARK   12  A    between atoms: _30  and  _31
REMARK   13  A    between atoms: _30  and  _33
REMARK   14  A    between atoms: _33  and  _34
REMARK   15  A    between atoms: _37  and  _39
REMARK   16  A    between atoms: _39  and  _40
REMARK   17  A    between atoms: _39  and  _42
REMARK   18  A    between atoms: _42  and  _43
REMARK   19  A    between atoms: _47  and  _48
REMARK   20  A    between atoms: _53  and  _55
REMARK   21  A    between atoms: _55  and  _56
REMARK   22  A    between atoms: _59  and  _61
REMARK   23  A    between atoms: _61  and  _62
REMARK   24  A    between atoms: _61  and  _64
REMARK   25  A    between atoms: _67  and  _69
REMARK   26  A    between atoms: _69  and  _70
REMARK   27  A    between atoms: _69  and  _72
REMARK   28  A    between atoms: _72  and  _73
REMARK   29  A    between atoms: _76  and  _78
REMARK   30  A    between atoms: _78  and  _79
REMARK   31  A    between atoms: _78  and  _81
REMARK   32  A    between atoms: _81  and  _82
REMARK   33  A    between atoms: _82  and  _83
REMARK   34  A    between atoms: _83  and  _84
REMARK   35  A    between atoms: _84  and  _85
REMARK   36  A    between atoms: _89  and  _91
REMARK   37  A    between atoms: _91  and  _92
REMARK   38  A    between atoms: _91  and  _94
REMARK   39  A    between atoms: _94  and  _95
REMARK   40  A    between atoms: _100  and  _102
REMARK   41  A    between atoms: _102  and  _103
REMARK   42  A    between atoms: _102  and  _105
REMARK   43  A    between atoms: _105  and  _106
REMARK   44  A    between atoms: _108  and  _110
REMARK   45  A    between atoms: _110  and  _111
REMARK   46  A    between atoms: _110  and  _113
REMARK   47  A    between atoms: _113  and  _114
REMARK   48  A    between atoms: _124  and  _126
REMARK   49  A    between atoms: _126  and  _127
REMARK   50  A    between atoms: _126  and  _129
REMARK   51  A    between atoms: _129  and  _130
REMARK   52  A    between atoms: _132  and  _134
REMARK   53  A    between atoms: _134  and  _135
REMARK   54  A    between atoms: _134  and  _137
REMARK   55  A    between atoms: _137  and  _138
REMARK   56  A    between atoms: _138  and  _139
REMARK   57  A    between atoms: _139  and  _140
REMARK   58  A    between atoms: _140  and  _141
REMARK   59  A    between atoms: _145  and  _147
REMARK   60  A    between atoms: _147  and  _148
REMARK   61  A    between atoms: _147  and  _150
REMARK   62  A    between atoms: _150  and  _151
REMARK   63  A    between atoms: _154  and  _156
REMARK   64  A    between atoms: _156  and  _157
REMARK   65  A    between atoms: _156  and  _159
REMARK   66  A    between atoms: _159  and  _160
REMARK   67  A    between atoms: _163  and  _165
REMARK   68  A    between atoms: _165  and  _166
REMARK   69  A    between atoms: _165  and  _168
REMARK   70  A    between atoms: _168  and  _169
REMARK   71  A    between atoms: _174  and  _175
REMARK   72  A    between atoms: _177  and  _179
REMARK   73  A    between atoms: _179  and  _180
REMARK   74  A    between atoms: _182  and  _184
REMARK   75  A    between atoms: _184  and  _185
REMARK   76  A    between atoms: _184  and  _187
REMARK   77  A    between atoms: _187  and  _188
REMARK   78  A    between atoms: _188  and  _189
REMARK   79  A    between atoms: _189  and  _190
REMARK   80  A    between atoms: _190  and  _191
REMARK   81  A    between atoms: _196  and  _197
REMARK   82  A    between atoms: _202  and  _204
REMARK   83  A    between atoms: _204  and  _205
REMARK   84  A    between atoms: _204  and  _207
REMARK   85  A    between atoms: _207  and  _208
REMARK   86  A    between atoms: _211  and  _213
REMARK   87  A    between atoms: _213  and  _214
REMARK   88  A    between atoms: _213  and  _216
REMARK   89  A    between atoms: _216  and  _217
REMARK   90  A    between atoms: _217  and  _218
REMARK   91  A    between atoms: _224  and  _225
REMARK   92  A    between atoms: _230  and  _232
REMARK   93  A    between atoms: _232  and  _233
REMARK   94  A    between atoms: _236  and  _238
REMARK   95  A    between atoms: _238  and  _239
REMARK   96  A    between atoms: _238  and  _241
REMARK   97  A    between atoms: _241  and  _242
REMARK   98  A    between atoms: _244  and  _246
REMARK   99  A    between atoms: _246  and  _247
REMARK  100  A    between atoms: _246  and  _249
REMARK  101  A    between atoms: _249  and  _250
REMARK  102  A    between atoms: _250  and  _251
REMARK  103  A    between atoms: _251  and  _252
REMARK  104  A    between atoms: _252  and  _253
REMARK  105  A    between atoms: _257  and  _259
REMARK  106  A    between atoms: _259  and  _260
REMARK  107  A    between atoms: _259  and  _262
REMARK  108  A    between atoms: _262  and  _263
REMARK  109  A    between atoms: _268  and  _269
REMARK                            x       y       z     vdW  Elec       q    Type
REMARK                         _______ _______ _______ _____ _____    ______ ____
ROOT
ATOM      1  C   TYR A   2      23.795   3.198 -22.280  0.00  0.00    +0.241 C 
ATOM      2  O   TYR A   2      23.194   2.931 -21.236  0.00  0.00    -0.273 OA
ATOM      3  N   GLY A   3      24.243   2.275 -23.124  0.00  0.00    -0.295 N 
ATOM      4  H   GLY A   3      24.684   2.585 -24.013  0.00  0.00    +0.150 HD
ENDROOT
BRANCH   3   5
ATOM      5  CA  GLY A   3      24.142   0.848 -22.856  0.00  0.00    +0.176 C 
BRANCH   5   6
ATOM      6  C   GLY A   3      25.213   0.079 -23.604  0.00  0.00    +0.243 C 
ATOM      7  N   THR A   4      25.503  -1.129 -23.129  0.00  0.00    -0.295 N 
ATOM      8  H   THR A   4      25.004  -1.473 -22.284  0.00  0.00    +0.150 HD
ATOM      9  O   GLY A   3      25.766   0.567 -24.593  0.00  0.00    -0.273 OA
BRANCH   7  10
ATOM     10  CA  THR A   4      26.499  -1.983 -23.759  0.00  0.00    +0.176 C 
BRANCH  10  11
ATOM     11  C   THR A   4      25.865  -3.295 -24.202  0.00  0.00    +0.243 C 
ATOM     12  O   THR A   4      25.317  -4.043 -23.386  0.00  0.00    -0.273 OA
ATOM     13  N   ILE A   5      25.932  -3.555 -25.503  0.00  0.00    -0.298 N 
ATOM     14  H   ILE A   5      26.279  -2.816 -26.147  0.00  0.00    +0.150 HD
BRANCH  13  15
ATOM     15  CA  ILE A   5      25.535  -4.844 -26.056  0.00  0.00    +0.137 C 
BRANCH  15  16
ATOM     16  CB  ILE A   5      24.433  -4.717 -27.140  0.00  0.00    +0.026 C 
ATOM     17  CG2 ILE A   5      23.078  -4.582 -26.479  0.00  0.00    +0.002 C 
BRANCH  16  18
ATOM     18  CG1 ILE A   5      24.687  -3.523 -28.074  0.00  0.00    +0.002 C 
ATOM     19  CD1 ILE A   5      25.671  -3.798 -29.202  0.00  0.00    +0.000 C 
ENDBRANCH  16  18
ENDBRANCH  15  16
BRANCH  15  20
ATOM     20  C   ILE A   5      26.757  -5.595 -26.579  0.00  0.00    +0.227 C 
ATOM     21  O   ILE A   5      27.849  -5.027 -26.673  0.00  0.00    -0.286 OA
ENDBRANCH  15  20
ENDBRANCH  13  15
ENDBRANCH  10  11
BRANCH  10  22
ATOM     22  CB  THR A   4      27.694  -2.267 -22.815  0.00  0.00    +0.137 C 
ATOM     23  CG2 THR A   4      28.795  -3.023 -23.545  0.00  0.00    +0.034 C 
BRANCH  22  24
ATOM     24  OG1 THR A   4      28.224  -1.032 -22.319  0.00  0.00    -0.382 OA
ATOM     25  HG1 THR A   4      27.519  -0.549 -21.820  0.00  0.00    +0.210 HD
ENDBRANCH  22  24
ENDBRANCH  10  22
ENDBRANCH   7  10
ENDBRANCH   5   6
ENDBRANCH   3   5
BRANCH   1  26
ATOM     26  CA  TYR A   2      24.070   4.643 -22.686  0.00  0.00    +0.153 C 
BRANCH  26  28
ATOM     27  C   VAL A   1      22.048   5.924 -23.124  0.00  0.00    +0.238 C 
ATOM     28  N   TYR A   2      22.996   5.537 -22.275  0.00  0.00    -0.297 N 
ATOM     29  H   TYR A   2      22.970   5.881 -21.294  0.00  0.00    +0.150 HD
ATOM     30  O   VAL A   1      22.041   5.613 -24.320  0.00  0.00    -0.274 OA
BRANCH  27  31
ATOM     31  CA  VAL A   1      20.943   6.798 -22.541  0.00  0.00    +0.145 C 
BRANCH  31  32
ATOM     32  CB  VAL A   1      19.642   5.962 -22.482  0.00  0.00    +0.025 C 
ATOM     33  CG2 VAL A   1      19.803   4.797 -21.502  0.00  0.00    +0.002 C 
ATOM     34  CG1 VAL A   1      18.459   6.816 -22.083  0.00  0.00    +0.002 C 
ENDBRANCH  31  32
BRANCH  31  35
ATOM     35  N   VAL A   1      20.818   8.007 -23.357  0.00  0.00    -0.238 NA
ATOM     36  H   VAL A   1      20.704   7.905 -24.386  0.00  0.00    +0.142 HD
ENDBRANCH  31  35
ENDBRANCH  27  31
ENDBRANCH  26  28
BRANCH  26  37
ATOM     37  CB  TYR A   2      25.411   5.102 -22.114  0.00  0.00    +0.055 C 
BRANCH  37  38
ATOM     38  CG  TYR A   2      26.109   6.171 -22.927  0.00  0.00    -0.020 A 
ATOM     39  CD2 TYR A   2      26.169   7.489 -22.476  0.00  0.00    -0.001 A 
ATOM     40  CE2 TYR A   2      26.816   8.473 -23.216  0.00  0.00    +0.036 A 
ATOM     41  CZ  TYR A   2      27.411   8.141 -24.421  0.00  0.00    +0.134 A 
ATOM     42  CE1 TYR A   2      27.367   6.839 -24.892  0.00  0.00    +0.036 A 
ATOM     43  CD1 TYR A   2      26.716   5.863 -24.146  0.00  0.00    -0.001 A 
BRANCH  41  44
ATOM     44  OH  TYR A   2      28.052   9.111 -25.155  0.00  0.00    -0.506 OA
ATOM     45  HH  TYR A   2      27.991   9.977 -24.680  0.00  0.00    +0.292 HD
ENDBRANCH  41  44
ENDBRANCH  37  38
ENDBRANCH  26  37
ENDBRANCH   1  26
TORSDOF 18
REMARK  Name = ../refined-set-2016/3qnd/3qnd_pocket.pdb
REMARK  109 active torsions:
REMARK  status: ('A' for Active; 'I' for Inactive)
REMARK    1  A    between atoms: _1  and  _3
REMARK    2  A    between atoms: _3  and  _4
REMARK    3  A    between atoms: _3  and  _6
REMARK    4  A    between atoms: _9  and  _11
REMARK    5  A    between atoms: _11  and  _12
REMARK    6  A    between atoms: _11  and  _14
REMARK    7  A    between atoms: _14  and  _15
REMARK    8  A    between atoms: _20  and  _21
REMARK    9  A    between atoms: _23  and  _25
REMARK   10  A    between atoms: _25  and  _26
REMARK   11  A    between atoms: _28  and  _30
REMARK   12  A    between atoms: _30  and  _31
REMARK   13  A    between atoms: _30  and  _33
REMARK   14  A    between atoms: _33  and  _34
REMARK   15  A    between atoms: _37  and  _39
REMARK   16  A    between atoms: _39  and  _40
REMARK   17  A    between atoms: _39  and  _42
REMARK   18  A    between atoms: _42  and  _43
REMARK   19  A    between atoms: _47  and  _48
REMARK   20  A    between atoms: _53  and  _55
REMARK   21  A    between atoms: _55  and  _56
REMARK   22  A    between atoms: _59  and  _61
REMARK   23  A    between atoms: _61  and  _62
REMARK   24  A    between atoms: _61  and  _64
REMARK   25  A    between atoms: _67  and  _69
REMARK   26  A    between atoms: _69  and  _70
REMARK   27  A    between atoms: _69  and  _72
REMARK   28  A    between atoms: _72  and  _73
REMARK   29  A    between atoms: _76  and  _78
REMARK   30  A    between atoms: _78  and  _79
REMARK   31  A    between atoms: _78  and  _81
REMARK   32  A    between atoms: _81  and  _82
REMARK   33  A    between atoms: _82  and  _83
REMARK   34  A    between atoms: _83  and  _84
REMARK   35  A    between atoms: _84  and  _85
REMARK   36  A    between atoms: _89  and  _91
REMARK   37  A    between atoms: _91  and  _92
REMARK   38  A    between atoms: _91  and  _94
REMARK   39  A    between atoms: _94  and  _95
REMARK   40  A    between atoms: _100  and  _102
REMARK   41  A    between atoms: _102  and  _103
REMARK   42  A    between atoms: _102  and  _105
REMARK   43  A    between atoms: _105  and  _106
REMARK   44  A    between atoms: _108  and  _110
REMARK   45  A    between atoms: _110  and  _111
REMARK   46  A    between atoms: _110  and  _113
REMARK   47  A    between atoms: _113  and  _114
REMARK   48  A    between atoms: _124  and  _126
REMARK   49  A    between atoms: _126  and  _127
REMARK   50  A    between atoms: _126  and  _129
REMARK   51  A    between atoms: _129  and  _130
REMARK   52  A    between atoms: _132  and  _134
REMARK   53  A    between atoms: _134  and  _135
REMARK   54  A    between atoms: _134  and  _137
REMARK   55  A    between atoms: _137  and  _138
REMARK   56  A    between atoms: _138  and  _139
REMARK   57  A    between atoms: _139  and  _140
REMARK   58  A    between atoms: _140  and  _141
REMARK   59  A    between atoms: _145  and  _147
REMARK   60  A    between atoms: _147  and  _148
REMARK   61  A    between atoms: _147  and  _150
REMARK   62  A    between atoms: _150  and  _151
REMARK   63  A    between atoms: _154  and  _156
REMARK   64  A    between atoms: _156  and  _157
REMARK   65  A    between atoms: _156  and  _159
REMARK   66  A    between atoms: _159  and  _160
REMARK   67  A    between atoms: _163  and  _165
REMARK   68  A    between atoms: _165  and  _166
REMARK   69  A    between atoms: _165  and  _168
REMARK   70  A    between atoms: _168  and  _169
REMARK   71  A    between atoms: _174  and  _175
REMARK   72  A    between atoms: _177  and  _179
REMARK   73  A    between atoms: _179  and  _180
REMARK   74  A    between atoms: _182  and  _184
REMARK   75  A    between atoms: _184  and  _185
REMARK   76  A    between atoms: _184  and  _187
REMARK   77  A    between atoms: _187  and  _188
REMARK   78  A    between atoms: _188  and  _189
REMARK   79  A    between atoms: _189  and  _190
REMARK   80  A    between atoms: _190  and  _191
REMARK   81  A    between atoms: _196  and  _197
REMARK   82  A    between atoms: _202  and  _204
REMARK   83  A    between atoms: _204  and  _205
REMARK   84  A    between atoms: _204  and  _207
REMARK   85  A    between atoms: _207  and  _208
REMARK   86  A    between atoms: _211  and  _213
REMARK   87  A    between atoms: _213  and  _214
REMARK   88  A    between atoms: _213  and  _216
REMARK   89  A    between atoms: _216  and  _217
REMARK   90  A    between atoms: _217  and  _218
REMARK   91  A    between atoms: _224  and  _225
REMARK   92  A    between atoms: _230  and  _232
REMARK   93  A    between atoms: _232  and  _233
REMARK   94  A    between atoms: _236  and  _238
REMARK   95  A    between atoms: _238  and  _239
REMARK   96  A    between atoms: _238  and  _241
REMARK   97  A    between atoms: _241  and  _242
REMARK   98  A    between atoms: _244  and  _246
REMARK   99  A    between atoms: _246  and  _247
REMARK  100  A    between atoms: _246  and  _249
REMARK  101  A    between atoms: _249  and  _250
REMARK  102  A    between atoms: _250  and  _251
REMARK  103  A    between atoms: _251  and  _252
REMARK  104  A    between atoms: _252  and  _253
REMARK  105  A    between atoms: _257  and  _259
REMARK  106  A    between atoms: _259  and  _260
REMARK  107  A    between atoms: _259  and  _262
REMARK  108  A    between atoms: _262  and  _263
REMARK  109  A    between atoms: _268  and  _269
REMARK                            x       y       z     vdW  Elec       q    Type
REMARK                         _______ _______ _______ _____ _____    ______ ____
ROOT
ATOM      1  C   VAL A   3      27.059   1.158 -27.947  0.00  0.00    +0.241 C 
ATOM      2  N   ILE A   4      25.887   1.103 -27.317  0.00  0.00    -0.297 N 
ATOM      3  H   ILE A   4      25.835   0.647 -26.384  0.00  0.00    +0.150 HD
ATOM      4  O   VAL A   3      27.174   1.445 -29.142  0.00  0.00    -0.273 OA
ENDROOT
BRANCH   2   5
ATOM      5  CA  ILE A   4      24.673   1.666 -27.901  0.00  0.00    +0.149 C 
BRANCH   5   6
ATOM      6  C   ILE A   4      24.303   2.975 -27.192  0.00  0.00    +0.241 C 
ATOM      7  O   ILE A   4      23.989   2.993 -25.997  0.00  0.00    -0.273 OA
ATOM      8  N   LYS A   5      24.375   4.068 -27.948  0.00  0.00    -0.298 N 
ATOM      9  H   LYS A   5      24.701   3.971 -28.931  0.00  0.00    +0.150 HD
BRANCH   8  10
ATOM     10  CA  LYS A   5      24.018   5.392 -27.462  0.00  0.00    +0.137 C 
BRANCH  10  11
ATOM     11  C   LYS A   5      22.670   5.780 -28.056  0.00  0.00    +0.227 C 
ATOM     12  O   LYS A   5      22.533   5.908 -29.277  0.00  0.00    -0.286 OA
ENDBRANCH  10  11
BRANCH  10  13
ATOM     13  CB  LYS A   5      25.097   6.401 -27.857  0.00  0.00    +0.028 C 
BRANCH  13  14
ATOM     14  CG  LYS A   5      24.901   7.815 -27.327  0.00  0.00    -0.000 C 
BRANCH  14  15
ATOM     15  CD  LYS A   5      25.944   8.744 -27.926  0.00  0.00    -0.024 C 
BRANCH  15  16
ATOM     16  CE  LYS A   5      25.845  10.151 -27.364  0.00  0.00    -0.086 C 
BRANCH  16  17
ATOM     17  NZ  LYS A   5      26.709  11.109 -28.117  0.00  0.00    +0.380 N 
ATOM     18  HZ1 LYS A   5      26.614  12.058 -27.703  0.00  0.00    -0.089 HD
ATOM     19  HZ2 LYS A   5      27.700  10.801 -28.057  0.00  0.00    -0.089 HD
ATOM     20  HZ3 LYS A   5      26.412  11.132 -29.113  0.00  0.00    -0.089 HD
ENDBRANCH  16  17
ENDBRANCH  15  16
ENDBRANCH  14  15
ENDBRANCH  13  14
ENDBRANCH  10  13
ENDBRANCH   8  10
ENDBRANCH   5   6
BRANCH   5  21
ATOM     21  CB  ILE A   4      23.483   0.658 -27.941  0.00  0.00    +0.027 C 
ATOM     22  CG2 ILE A   4      23.159   0.108 -26.543  0.00  0.00    +0.002 C 
BRANCH  21  23
ATOM     23  CG1 ILE A   4      22.256   1.308 -28.592  0.00  0.00    +0.002 C 
ATOM     24  CD1 ILE A   4      21.146   0.340 -28.955  0.00  0.00    +0.000 C 
ENDBRANCH  21  23
ENDBRANCH   5  21
ENDBRANCH   2   5
BRANCH   1  25
ATOM     25  CA  VAL A   3      28.285   0.813 -27.106  0.00  0.00    +0.149 C 
BRANCH  25  28
ATOM     26  C   ALA A   2      28.828  -1.494 -27.685  0.00  0.00    +0.241 C 
ATOM     27  O   ALA A   2      27.875  -1.946 -27.043  0.00  0.00    -0.273 OA
ATOM     28  N   VAL A   3      29.098  -0.196 -27.773  0.00  0.00    -0.297 N 
ATOM     29  H   VAL A   3      29.917   0.110 -28.337  0.00  0.00    +0.150 HD
BRANCH  26  30
ATOM     30  CA  ALA A   2      29.782  -2.424 -28.421  0.00  0.00    +0.149 C 
ATOM     31  CB  ALA A   2      29.242  -2.781 -29.794  0.00  0.00    +0.031 C 
BRANCH  30  33
ATOM     32  C   PRO A   1      31.166  -4.203 -27.482  0.00  0.00    +0.239 C 
ATOM     33  N   ALA A   2      29.982  -3.618 -27.614  0.00  0.00    -0.297 N 
ATOM     34  H   ALA A   2      29.164  -4.030 -27.121  0.00  0.00    +0.150 HD
ATOM     35  O   PRO A   1      32.144  -3.936 -28.183  0.00  0.00    -0.274 OA
BRANCH  32  40
ATOM     36  N   PRO A   1      32.235  -6.314 -26.658  0.00  0.00    -0.210 NA
ATOM     37  CD  PRO A   1      33.447  -6.157 -25.827  0.00  0.00    +0.089 C 
ATOM     38  CG  PRO A   1      33.251  -4.824 -25.159  0.00  0.00    +0.021 C 
ATOM     39  CB  PRO A   1      31.788  -4.617 -25.102  0.00  0.00    +0.028 C 
ATOM     40  CA  PRO A   1      31.257  -5.261 -26.387  0.00  0.00    +0.149 C 
ENDBRANCH  32  40
ENDBRANCH  30  33
ENDBRANCH  26  30
ENDBRANCH  25  28
BRANCH  25  41
ATOM     41  CB  VAL A   3      29.104   2.098 -26.812  0.00  0.00    +0.027 C 
ATOM     42  CG2 VAL A   3      30.265   1.788 -25.876  0.00  0.00    +0.002 C 
ATOM     43  CG1 VAL A   3      28.219   3.191 -26.219  0.00  0.00    +0.002 C 
ENDBRANCH  25  41
ENDBRANCH   1  25
TORSDOF 17
REMARK  Name = ../refined-set-2016/3qnd/3qnd_pocket.pdb
REMARK  109 active torsions:
REMARK  status: ('A' for Active; 'I' for Inactive)
REMARK    1  A    between atoms: _1  and  _3
REMARK    2  A    between atoms: _3  and  _4
REMARK    3  A    between atoms: _3  and  _6
REMARK    4  A    between atoms: _9  and  _11
REMARK    5  A    between atoms: _11  and  _12
REMARK    6  A    between atoms: _11  and  _14
REMARK    7  A    between atoms: _14  and  _15
REMARK    8  A    between atoms: _20  and  _21
REMARK    9  A    between atoms: _23  and  _25
REMARK   10  A    between atoms: _25  and  _26
REMARK   11  A    between atoms: _28  and  _30
REMARK   12  A    between atoms: _30  and  _31
REMARK   13  A    between atoms: _30  and  _33
REMARK   14  A    between atoms: _33  and  _34
REMARK   15  A    between atoms: _37  and  _39
REMARK   16  A    between atoms: _39  and  _40
REMARK   17  A    between atoms: _39  and  _42
REMARK   18  A    between atoms: _42  and  _43
REMARK   19  A    between atoms: _47  and  _48
REMARK   20  A    between atoms: _53  and  _55
REMARK   21  A    between atoms: _55  and  _56
REMARK   22  A    between atoms: _59  and  _61
REMARK   23  A    between atoms: _61  and  _62
REMARK   24  A    between atoms: _61  and  _64
REMARK   25  A    between atoms: _67  and  _69
REMARK   26  A    between atoms: _69  and  _70
REMARK   27  A    between atoms: _69  and  _72
REMARK   28  A    between atoms: _72  and  _73
REMARK   29  A    between atoms: _76  and  _78
REMARK   30  A    between atoms: _78  and  _79
REMARK   31  A    between atoms: _78  and  _81
REMARK   32  A    between atoms: _81  and  _82
REMARK   33  A    between atoms: _82  and  _83
REMARK   34  A    between atoms: _83  and  _84
REMARK   35  A    between atoms: _84  and  _85
REMARK   36  A    between atoms: _89  and  _91
REMARK   37  A    between atoms: _91  and  _92
REMARK   38  A    between atoms: _91  and  _94
REMARK   39  A    between atoms: _94  and  _95
REMARK   40  A    between atoms: _100  and  _102
REMARK   41  A    between atoms: _102  and  _103
REMARK   42  A    between atoms: _102  and  _105
REMARK   43  A    between atoms: _105  and  _106
REMARK   44  A    between atoms: _108  and  _110
REMARK   45  A    between atoms: _110  and  _111
REMARK   46  A    between atoms: _110  and  _113
REMARK   47  A    between atoms: _113  and  _114
REMARK   48  A    between atoms: _124  and  _126
REMARK   49  A    between atoms: _126  and  _127
REMARK   50  A    between atoms: _126  and  _129
REMARK   51  A    between atoms: _129  and  _130
REMARK   52  A    between atoms: _132  and  _134
REMARK   53  A    between atoms: _134  and  _135
REMARK   54  A    between atoms: _134  and  _137
REMARK   55  A    between atoms: _137  and  _138
REMARK   56  A    between atoms: _138  and  _139
REMARK   57  A    between atoms: _139  and  _140
REMARK   58  A    between atoms: _140  and  _141
REMARK   59  A    between atoms: _145  and  _147
REMARK   60  A    between atoms: _147  and  _148
REMARK   61  A    between atoms: _147  and  _150
REMARK   62  A    between atoms: _150  and  _151
REMARK   63  A    between atoms: _154  and  _156
REMARK   64  A    between atoms: _156  and  _157
REMARK   65  A    between atoms: _156  and  _159
REMARK   66  A    between atoms: _159  and  _160
REMARK   67  A    between atoms: _163  and  _165
REMARK   68  A    between atoms: _165  and  _166
REMARK   69  A    between atoms: _165  and  _168
REMARK   70  A    between atoms: _168  and  _169
REMARK   71  A    between atoms: _174  and  _175
REMARK   72  A    between atoms: _177  and  _179
REMARK   73  A    between atoms: _179  and  _180
REMARK   74  A    between atoms: _182  and  _184
REMARK   75  A    between atoms: _184  and  _185
REMARK   76  A    between atoms: _184  and  _187
REMARK   77  A    between atoms: _187  and  _188
REMARK   78  A    between atoms: _188  and  _189
REMARK   79  A    between atoms: _189  and  _190
REMARK   80  A    between atoms: _190  and  _191
REMARK   81  A    between atoms: _196  and  _197
REMARK   82  A    between atoms: _202  and  _204
REMARK   83  A    between atoms: _204  and  _205
REMARK   84  A    between atoms: _204  and  _207
REMARK   85  A    between atoms: _207  and  _208
REMARK   86  A    between atoms: _211  and  _213
REMARK   87  A    between atoms: _213  and  _214
REMARK   88  A    between atoms: _213  and  _216
REMARK   89  A    between atoms: _216  and  _217
REMARK   90  A    between atoms: _217  and  _218
REMARK   91  A    between atoms: _224  and  _225
REMARK   92  A    between atoms: _230  and  _232
REMARK   93  A    between atoms: _232  and  _233
REMARK   94  A    between atoms: _236  and  _238
REMARK   95  A    between atoms: _238  and  _239
REMARK   96  A    between atoms: _238  and  _241
REMARK   97  A    between atoms: _241  and  _242
REMARK   98  A    between atoms: _244  and  _246
REMARK   99  A    between atoms: _246  and  _247
REMARK  100  A    between atoms: _246  and  _249
REMARK  101  A    between atoms: _249  and  _250
REMARK  102  A    between atoms: _250  and  _251
REMARK  103  A    between atoms: _251  and  _252
REMARK  104  A    between atoms: _252  and  _253
REMARK  105  A    between atoms: _257  and  _259
REMARK  106  A    between atoms: _259  and  _260
REMARK  107  A    between atoms: _259  and  _262
REMARK  108  A    between atoms: _262  and  _263
REMARK  109  A    between atoms: _268  and  _269
REMARK                            x       y       z     vdW  Elec       q    Type
REMARK                         _______ _______ _______ _____ _____    ______ ____
ROOT
ATOM      1  CB  ASN A   1      25.215   6.459 -31.957  0.00  0.00    +0.110 C 
ENDROOT
BRANCH   1   2
ATOM      2  CG  ASN A   1      26.669   6.469 -32.422  0.00  0.00    +0.221 C 
ATOM      3  ND2 ASN A   1      27.592   6.596 -31.475  0.00  0.00    -0.329 N 
ATOM      4 HD21 ASN A   1      27.306   6.682 -30.479  0.00  0.00    +0.145 HD
ATOM      5 HD22 ASN A   1      28.600   6.610 -31.730  0.00  0.00    +0.145 HD
ATOM      6  OD1 ASN A   1      26.955   6.364 -33.617  0.00  0.00    -0.275 OA
ENDBRANCH   1   2
BRANCH   1   7
ATOM      7  CA  ASN A   1      24.477   5.176 -32.356  0.00  0.00    +0.142 C 
BRANCH   7   8
ATOM      8  N   ASN A   1      23.089   5.197 -31.905  0.00  0.00    -0.239 NA
ATOM      9  H   ASN A   1      22.876   5.515 -30.938  0.00  0.00    +0.142 HD
ENDBRANCH   7   8
BRANCH   7  10
ATOM     10  C   ASN A   1      25.218   3.953 -31.824  0.00  0.00    +0.225 C 
ATOM     11  O   ASN A   1      25.376   3.786 -30.611  0.00  0.00    -0.287 OA
ENDBRANCH   7  10
ENDBRANCH   1   7
TORSDOF 4
REMARK  Name = ../refined-set-2016/3qnd/3qnd_pocket.pdb
REMARK  109 active torsions:
REMARK  status: ('A' for Active; 'I' for Inactive)
REMARK    1  A    between atoms: _1  and  _3
REMARK    2  A    between atoms: _3  and  _4
REMARK    3  A    between atoms: _3  and  _6
REMARK    4  A    between atoms: _9  and  _11
REMARK    5  A    between atoms: _11  and  _12
REMARK    6  A    between atoms: _11  and  _14
REMARK    7  A    between atoms: _14  and  _15
REMARK    8  A    between atoms: _20  and  _21
REMARK    9  A    between atoms: _23  and  _25
REMARK   10  A    between atoms: _25  and  _26
REMARK   11  A    between atoms: _28  and  _30
REMARK   12  A    between atoms: _30  and  _31
REMARK   13  A    between atoms: _30  and  _33
REMARK   14  A    between atoms: _33  and  _34
REMARK   15  A    between atoms: _37  and  _39
REMARK   16  A    between atoms: _39  and  _40
REMARK   17  A    between atoms: _39  and  _42
REMARK   18  A    between atoms: _42  and  _43
REMARK   19  A    between atoms: _47  and  _48
REMARK   20  A    between atoms: _53  and  _55
REMARK   21  A    between atoms: _55  and  _56
REMARK   22  A    between atoms: _59  and  _61
REMARK   23  A    between atoms: _61  and  _62
REMARK   24  A    between atoms: _61  and  _64
REMARK   25  A    between atoms: _67  and  _69
REMARK   26  A    between atoms: _69  and  _70
REMARK   27  A    between atoms: _69  and  _72
REMARK   28  A    between atoms: _72  and  _73
REMARK   29  A    between atoms: _76  and  _78
REMARK   30  A    between atoms: _78  and  _79
REMARK   31  A    between atoms: _78  and  _81
REMARK   32  A    between atoms: _81  and  _82
REMARK   33  A    between atoms: _82  and  _83
REMARK   34  A    between atoms: _83  and  _84
REMARK   35  A    between atoms: _84  and  _85
REMARK   36  A    between atoms: _89  and  _91
REMARK   37  A    between atoms: _91  and  _92
REMARK   38  A    between atoms: _91  and  _94
REMARK   39  A    between atoms: _94  and  _95
REMARK   40  A    between atoms: _100  and  _102
REMARK   41  A    between atoms: _102  and  _103
REMARK   42  A    between atoms: _102  and  _105
REMARK   43  A    between atoms: _105  and  _106
REMARK   44  A    between atoms: _108  and  _110
REMARK   45  A    between atoms: _110  and  _111
REMARK   46  A    between atoms: _110  and  _113
REMARK   47  A    between atoms: _113  and  _114
REMARK   48  A    between atoms: _124  and  _126
REMARK   49  A    between atoms: _126  and  _127
REMARK   50  A    between atoms: _126  and  _129
REMARK   51  A    between atoms: _129  and  _130
REMARK   52  A    between atoms: _132  and  _134
REMARK   53  A    between atoms: _134  and  _135
REMARK   54  A    between atoms: _134  and  _137
REMARK   55  A    between atoms: _137  and  _138
REMARK   56  A    between atoms: _138  and  _139
REMARK   57  A    between atoms: _139  and  _140
REMARK   58  A    between atoms: _140  and  _141
REMARK   59  A    between atoms: _145  and  _147
REMARK   60  A    between atoms: _147  and  _148
REMARK   61  A    between atoms: _147  and  _150
REMARK   62  A    between atoms: _150  and  _151
REMARK   63  A    between atoms: _154  and  _156
REMARK   64  A    between atoms: _156  and  _157
REMARK   65  A    between atoms: _156  and  _159
REMARK   66  A    between atoms: _159  and  _160
REMARK   67  A    between atoms: _163  and  _165
REMARK   68  A    between atoms: _165  and  _166
REMARK   69  A    between atoms: _165  and  _168
REMARK   70  A    between atoms: _168  and  _169
REMARK   71  A    between atoms: _174  and  _175
REMARK   72  A    between atoms: _177  and  _179
REMARK   73  A    between atoms: _179  and  _180
REMARK   74  A    between atoms: _182  and  _184
REMARK   75  A    between atoms: _184  and  _185
REMARK   76  A    between atoms: _184  and  _187
REMARK   77  A    between atoms: _187  and  _188
REMARK   78  A    between atoms: _188  and  _189
REMARK   79  A    between atoms: _189  and  _190
REMARK   80  A    between atoms: _190  and  _191
REMARK   81  A    between atoms: _196  and  _197
REMARK   82  A    between atoms: _202  and  _204
REMARK   83  A    between atoms: _204  and  _205
REMARK   84  A    between atoms: _204  and  _207
REMARK   85  A    between atoms: _207  and  _208
REMARK   86  A    between atoms: _211  and  _213
REMARK   87  A    between atoms: _213  and  _214
REMARK   88  A    between atoms: _213  and  _216
REMARK   89  A    between atoms: _216  and  _217
REMARK   90  A    between atoms: _217  and  _218
REMARK   91  A    between atoms: _224  and  _225
REMARK   92  A    between atoms: _230  and  _232
REMARK   93  A    between atoms: _232  and  _233
REMARK   94  A    between atoms: _236  and  _238
REMARK   95  A    between atoms: _238  and  _239
REMARK   96  A    between atoms: _238  and  _241
REMARK   97  A    between atoms: _241  and  _242
REMARK   98  A    between atoms: _244  and  _246
REMARK   99  A    between atoms: _246  and  _247
REMARK  100  A    between atoms: _246  and  _249
REMARK  101  A    between atoms: _249  and  _250
REMARK  102  A    between atoms: _250  and  _251
REMARK  103  A    between atoms: _251  and  _252
REMARK  104  A    between atoms: _252  and  _253
REMARK  105  A    between atoms: _257  and  _259
REMARK  106  A    between atoms: _259  and  _260
REMARK  107  A    between atoms: _259  and  _262
REMARK  108  A    between atoms: _262  and  _263
REMARK  109  A    between atoms: _268  and  _269
REMARK                            x       y       z     vdW  Elec       q    Type
REMARK                         _______ _______ _______ _____ _____    ______ ____
ROOT
ATOM      1  C   TRP A   2      34.558   0.714 -30.583  0.00  0.00    +0.241 C 
ATOM      2  N   SER A   3      35.327   0.413 -29.539  0.00  0.00    -0.295 N 
ATOM      3  H   SER A   3      34.932  -0.180 -28.782  0.00  0.00    +0.150 HD
ATOM      4  O   TRP A   2      34.951   1.375 -31.550  0.00  0.00    -0.273 OA
ENDROOT
BRANCH   2   5
ATOM      5  CA  SER A   3      36.707   0.884 -29.415  0.00  0.00    +0.178 C 
BRANCH   5   6
ATOM      6  C   SER A   3      37.745  -0.231 -29.582  0.00  0.00    +0.243 C 
ATOM      7  O   SER A   3      38.950   0.034 -29.613  0.00  0.00    -0.273 OA
ATOM      8  N   LYS A   4      37.272  -1.470 -29.696  0.00  0.00    -0.298 N 
ATOM      9  H   LYS A   4      36.245  -1.620 -29.636  0.00  0.00    +0.150 HD
BRANCH   8  10
ATOM     10  CA  LYS A   4      38.142  -2.629 -29.903  0.00  0.00    +0.137 C 
BRANCH  10  11
ATOM     11  C   LYS A   4      38.384  -2.916 -31.385  0.00  0.00    +0.227 C 
ATOM     12  O   LYS A   4      37.544  -2.610 -32.234  0.00  0.00    -0.286 OA
ENDBRANCH  10  11
BRANCH  10  13
ATOM     13  CB  LYS A   4      37.542  -3.868 -29.243  0.00  0.00    +0.028 C 
BRANCH  13  14
ATOM     14  CG  LYS A   4      37.803  -3.998 -27.758  0.00  0.00    -0.000 C 
BRANCH  14  15
ATOM     15  CD  LYS A   4      37.226  -5.307 -27.255  0.00  0.00    -0.024 C 
BRANCH  15  16
ATOM     16  CE  LYS A   4      37.875  -5.750 -25.967  0.00  0.00    -0.086 C 
BRANCH  16  17
ATOM     17  NZ  LYS A   4      37.306  -7.044 -25.516  0.00  0.00    +0.380 N 
ATOM     18  HZ1 LYS A   4      37.765  -7.333 -24.628  0.00  0.00    -0.089 HD
ATOM     19  HZ2 LYS A   4      36.283  -6.936 -25.360  0.00  0.00    -0.089 HD
ATOM     20  HZ3 LYS A   4      37.472  -7.767 -26.245  0.00  0.00    -0.089 HD
ENDBRANCH  16  17
ENDBRANCH  15  16
ENDBRANCH  14  15
ENDBRANCH  13  14
ENDBRANCH  10  13
ENDBRANCH   8  10
ENDBRANCH   5   6
BRANCH   5  21
ATOM     21  CB  SER A   3      36.905   1.611 -28.080  0.00  0.00    +0.166 C 
BRANCH  21  22
ATOM     22  OG  SER A   3      36.562   0.784 -26.982  0.00  0.00    -0.380 OA
ATOM     23  H   SER A   3      35.612   0.517 -27.056  0.00  0.00    +0.211 HD
ENDBRANCH  21  22
ENDBRANCH   5  21
ENDBRANCH   2   5
BRANCH   1  24
ATOM     24  CA  TRP A   2      33.123   0.200 -30.526  0.00  0.00    +0.153 C 
BRANCH  24  27
ATOM     25  C   SER A   1      30.970   1.311 -30.887  0.00  0.00    +0.241 C 
ATOM     26  O   SER A   1      30.442   0.749 -29.927  0.00  0.00    -0.274 OA
ATOM     27  N   TRP A   2      32.229   1.095 -31.259  0.00  0.00    -0.297 N 
ATOM     28  H   TRP A   2      32.591   1.582 -32.104  0.00  0.00    +0.150 HD
BRANCH  25  29
ATOM     29  CA  SER A   1      30.189   2.313 -31.731  0.00  0.00    +0.174 C 
BRANCH  29  30
ATOM     30  N   SER A   1      28.746   2.107 -31.619  0.00  0.00    -0.236 NA
ATOM     31  H   SER A   1      28.341   1.862 -30.693  0.00  0.00    +0.142 HD
ENDBRANCH  29  30
BRANCH  29  32
ATOM     32  CB  SER A   1      30.570   3.746 -31.341  0.00  0.00    +0.163 C 
BRANCH  32  33
ATOM     33  OG  SER A   1      30.378   3.976 -29.955  0.00  0.00    -0.380 OA
ATOM     34  H   SER A   1      29.426   3.831 -29.726  0.00  0.00    +0.211 HD
ENDBRANCH  32  33
ENDBRANCH  29  32
ENDBRANCH  25  29
ENDBRANCH  24  27
BRANCH  24  35
ATOM     35  CB  TRP A   2      33.031  -1.237 -31.062  0.00  0.00    +0.057 C 
BRANCH  35  36
ATOM     36  CG  TRP A   2      33.308  -1.369 -32.537  0.00  0.00    -0.002 A 
ATOM     37  CD1 TRP A   2      34.488  -1.731 -33.118  0.00  0.00    +0.068 A 
ATOM     38  NE1 TRP A   2      34.359  -1.742 -34.487  0.00  0.00    -0.352 N 
ATOM     39  CE2 TRP A   2      33.079  -1.384 -34.817  0.00  0.00    +0.056 A 
ATOM     40  CZ2 TRP A   2      32.473  -1.255 -36.070  0.00  0.00    +0.017 A 
ATOM     41  CH2 TRP A   2      31.157  -0.875 -36.101  0.00  0.00    +0.001 A 
ATOM     42  CZ3 TRP A   2      30.438  -0.623 -34.920  0.00  0.00    +0.000 A 
ATOM     43  CE3 TRP A   2      31.038  -0.757 -33.672  0.00  0.00    +0.001 A 
ATOM     44  HE1 TRP A   2      35.112  -1.983 -35.163  0.00  0.00    +0.166 HD
ATOM     45  CD2 TRP A   2      32.385  -1.141 -33.611  0.00  0.00    +0.013 A 
ENDBRANCH  35  36
ENDBRANCH  24  35
ENDBRANCH   1  24
TORSDOF 19
REMARK  Name = ../refined-set-2016/3qnd/3qnd_pocket.pdb
REMARK  109 active torsions:
REMARK  status: ('A' for Active; 'I' for Inactive)
REMARK    1  A    between atoms: _1  and  _3
REMARK    2  A    between atoms: _3  and  _4
REMARK    3  A    between atoms: _3  and  _6
REMARK    4  A    between atoms: _9  and  _11
REMARK    5  A    between atoms: _11  and  _12
REMARK    6  A    between atoms: _11  and  _14
REMARK    7  A    between atoms: _14  and  _15
REMARK    8  A    between atoms: _20  and  _21
REMARK    9  A    between atoms: _23  and  _25
REMARK   10  A    between atoms: _25  and  _26
REMARK   11  A    between atoms: _28  and  _30
REMARK   12  A    between atoms: _30  and  _31
REMARK   13  A    between atoms: _30  and  _33
REMARK   14  A    between atoms: _33  and  _34
REMARK   15  A    between atoms: _37  and  _39
REMARK   16  A    between atoms: _39  and  _40
REMARK   17  A    between atoms: _39  and  _42
REMARK   18  A    between atoms: _42  and  _43
REMARK   19  A    between atoms: _47  and  _48
REMARK   20  A    between atoms: _53  and  _55
REMARK   21  A    between atoms: _55  and  _56
REMARK   22  A    between atoms: _59  and  _61
REMARK   23  A    between atoms: _61  and  _62
REMARK   24  A    between atoms: _61  and  _64
REMARK   25  A    between atoms: _67  and  _69
REMARK   26  A    between atoms: _69  and  _70
REMARK   27  A    between atoms: _69  and  _72
REMARK   28  A    between atoms: _72  and  _73
REMARK   29  A    between atoms: _76  and  _78
REMARK   30  A    between atoms: _78  and  _79
REMARK   31  A    between atoms: _78  and  _81
REMARK   32  A    between atoms: _81  and  _82
REMARK   33  A    between atoms: _82  and  _83
REMARK   34  A    between atoms: _83  and  _84
REMARK   35  A    between atoms: _84  and  _85
REMARK   36  A    between atoms: _89  and  _91
REMARK   37  A    between atoms: _91  and  _92
REMARK   38  A    between atoms: _91  and  _94
REMARK   39  A    between atoms: _94  and  _95
REMARK   40  A    between atoms: _100  and  _102
REMARK   41  A    between atoms: _102  and  _103
REMARK   42  A    between atoms: _102  and  _105
REMARK   43  A    between atoms: _105  and  _106
REMARK   44  A    between atoms: _108  and  _110
REMARK   45  A    between atoms: _110  and  _111
REMARK   46  A    between atoms: _110  and  _113
REMARK   47  A    between atoms: _113  and  _114
REMARK   48  A    between atoms: _124  and  _126
REMARK   49  A    between atoms: _126  and  _127
REMARK   50  A    between atoms: _126  and  _129
REMARK   51  A    between atoms: _129  and  _130
REMARK   52  A    between atoms: _132  and  _134
REMARK   53  A    between atoms: _134  and  _135
REMARK   54  A    between atoms: _134  and  _137
REMARK   55  A    between atoms: _137  and  _138
REMARK   56  A    between atoms: _138  and  _139
REMARK   57  A    between atoms: _139  and  _140
REMARK   58  A    between atoms: _140  and  _141
REMARK   59  A    between atoms: _145  and  _147
REMARK   60  A    between atoms: _147  and  _148
REMARK   61  A    between atoms: _147  and  _150
REMARK   62  A    between atoms: _150  and  _151
REMARK   63  A    between atoms: _154  and  _156
REMARK   64  A    between atoms: _156  and  _157
REMARK   65  A    between atoms: _156  and  _159
REMARK   66  A    between atoms: _159  and  _160
REMARK   67  A    between atoms: _163  and  _165
REMARK   68  A    between atoms: _165  and  _166
REMARK   69  A    between atoms: _165  and  _168
REMARK   70  A    between atoms: _168  and  _169
REMARK   71  A    between atoms: _174  and  _175
REMARK   72  A    between atoms: _177  and  _179
REMARK   73  A    between atoms: _179  and  _180
REMARK   74  A    between atoms: _182  and  _184
REMARK   75  A    between atoms: _184  and  _185
REMARK   76  A    between atoms: _184  and  _187
REMARK   77  A    between atoms: _187  and  _188
REMARK   78  A    between atoms: _188  and  _189
REMARK   79  A    between atoms: _189  and  _190
REMARK   80  A    between atoms: _190  and  _191
REMARK   81  A    between atoms: _196  and  _197
REMARK   82  A    between atoms: _202  and  _204
REMARK   83  A    between atoms: _204  and  _205
REMARK   84  A    between atoms: _204  and  _207
REMARK   85  A    between atoms: _207  and  _208
REMARK   86  A    between atoms: _211  and  _213
REMARK   87  A    between atoms: _213  and  _214
REMARK   88  A    between atoms: _213  and  _216
REMARK   89  A    between atoms: _216  and  _217
REMARK   90  A    between atoms: _217  and  _218
REMARK   91  A    between atoms: _224  and  _225
REMARK   92  A    between atoms: _230  and  _232
REMARK   93  A    between atoms: _232  and  _233
REMARK   94  A    between atoms: _236  and  _238
REMARK   95  A    between atoms: _238  and  _239
REMARK   96  A    between atoms: _238  and  _241
REMARK   97  A    between atoms: _241  and  _242
REMARK   98  A    between atoms: _244  and  _246
REMARK   99  A    between atoms: _246  and  _247
REMARK  100  A    between atoms: _246  and  _249
REMARK  101  A    between atoms: _249  and  _250
REMARK  102  A    between atoms: _250  and  _251
REMARK  103  A    between atoms: _251  and  _252
REMARK  104  A    between atoms: _252  and  _253
REMARK  105  A    between atoms: _257  and  _259
REMARK  106  A    between atoms: _259  and  _260
REMARK  107  A    between atoms: _259  and  _262
REMARK  108  A    between atoms: _262  and  _263
REMARK  109  A    between atoms: _268  and  _269
REMARK                            x       y       z     vdW  Elec       q    Type
REMARK                         _______ _______ _______ _____ _____    ______ ____
ROOT
ATOM      1  CA  ILE A   2      25.711   7.417 -16.007  0.00  0.00    +0.148 C 
ENDROOT
BRANCH   1   3
ATOM      2  C   THR A   1      25.998   5.022 -15.617  0.00  0.00    +0.241 C 
ATOM      3  N   ILE A   2      26.115   6.276 -15.187  0.00  0.00    -0.297 N 
ATOM      4  H   ILE A   2      26.506   6.450 -14.239  0.00  0.00    +0.150 HD
ATOM      5  O   THR A   1      25.382   4.711 -16.642  0.00  0.00    -0.274 OA
BRANCH   2   6
ATOM      6  CA  THR A   1      26.657   3.955 -14.747  0.00  0.00    +0.172 C 
BRANCH   6   7
ATOM      7  N   THR A   1      25.664   2.986 -14.306  0.00  0.00    -0.236 NA
ATOM      8  H   THR A   1      25.107   2.475 -15.020  0.00  0.00    +0.142 HD
ENDBRANCH   6   7
BRANCH   6   9
ATOM      9  CB  THR A   1      27.817   3.283 -15.526  0.00  0.00    +0.135 C 
ATOM     10  CG2 THR A   1      28.885   4.303 -15.889  0.00  0.00    +0.034 C 
BRANCH   9  11
ATOM     11  OG1 THR A   1      28.411   2.255 -14.723  0.00  0.00    -0.383 OA
ATOM     12  HG1 THR A   1      29.150   1.831 -15.226  0.00  0.00    +0.210 HD
ENDBRANCH   9  11
ENDBRANCH   6   9
ENDBRANCH   2   6
ENDBRANCH   1   3
BRANCH   1  13
ATOM     13  C   ILE A   2      26.941   8.185 -16.485  0.00  0.00    +0.241 C 
ATOM     14  O   ILE A   2      28.051   7.966 -15.992  0.00  0.00    -0.273 OA
ATOM     15  N   TYR A   3      26.744   9.080 -17.447  0.00  0.00    -0.298 N 
ATOM     16  H   TYR A   3      25.775   9.289 -17.761  0.00  0.00    +0.150 HD
BRANCH  15  17
ATOM     17  CA  TYR A   3      27.863   9.773 -18.068  0.00  0.00    +0.141 C 
BRANCH  17  18
ATOM     18  C   TYR A   3      27.687  11.287 -18.039  0.00  0.00    +0.227 C 
ATOM     19  O   TYR A   3      26.620  11.813 -18.374  0.00  0.00    -0.286 OA
ENDBRANCH  17  18
BRANCH  17  20
ATOM     20  CB  TYR A   3      28.107   9.230 -19.485  0.00  0.00    +0.054 C 
BRANCH  20  21
ATOM     21  CG  TYR A   3      28.481   7.757 -19.475  0.00  0.00    -0.020 A 
ATOM     22  CD2 TYR A   3      27.504   6.771 -19.323  0.00  0.00    -0.001 A 
ATOM     23  CE2 TYR A   3      27.837   5.426 -19.289  0.00  0.00    +0.036 A 
ATOM     24  CZ  TYR A   3      29.160   5.051 -19.405  0.00  0.00    +0.134 A 
ATOM     25  CE1 TYR A   3      30.152   6.007 -19.555  0.00  0.00    +0.036 A 
ATOM     26  CD1 TYR A   3      29.809   7.353 -19.585  0.00  0.00    -0.001 A 
BRANCH  24  27
ATOM     27  OH  TYR A   3      29.481   3.717 -19.373  0.00  0.00    -0.506 OA
ATOM     28  HH  TYR A   3      29.926   3.465 -20.221  0.00  0.00    +0.292 HD
ENDBRANCH  24  27
ENDBRANCH  20  21
ENDBRANCH  17  20
ENDBRANCH  15  17
ENDBRANCH   1  13
BRANCH   1  29
ATOM     29  CB  ILE A   2      24.707   8.352 -15.283  0.00  0.00    +0.027 C 
ATOM     30  CG2 ILE A   2      23.318   7.745 -15.314  0.00  0.00    +0.002 C 
BRANCH  29  31
ATOM     31  CG1 ILE A   2      25.125   8.625 -13.832  0.00  0.00    +0.002 C 
ATOM     32  CD1 ILE A   2      26.185   9.694 -13.663  0.00  0.00    +0.000 C 
ENDBRANCH  29  31
ENDBRANCH   1  29
TORSDOF 13
REMARK  Name = ../refined-set-2016/3qnd/3qnd_pocket.pdb
REMARK  109 active torsions:
REMARK  status: ('A' for Active; 'I' for Inactive)
REMARK    1  A    between atoms: _1  and  _3
REMARK    2  A    between atoms: _3  and  _4
REMARK    3  A    between atoms: _3  and  _6
REMARK    4  A    between atoms: _9  and  _11
REMARK    5  A    between atoms: _11  and  _12
REMARK    6  A    between atoms: _11  and  _14
REMARK    7  A    between atoms: _14  and  _15
REMARK    8  A    between atoms: _20  and  _21
REMARK    9  A    between atoms: _23  and  _25
REMARK   10  A    between atoms: _25  and  _26
REMARK   11  A    between atoms: _28  and  _30
REMARK   12  A    between atoms: _30  and  _31
REMARK   13  A    between atoms: _30  and  _33
REMARK   14  A    between atoms: _33  and  _34
REMARK   15  A    between atoms: _37  and  _39
REMARK   16  A    between atoms: _39  and  _40
REMARK   17  A    between atoms: _39  and  _42
REMARK   18  A    between atoms: _42  and  _43
REMARK   19  A    between atoms: _47  and  _48
REMARK   20  A    between atoms: _53  and  _55
REMARK   21  A    between atoms: _55  and  _56
REMARK   22  A    between atoms: _59  and  _61
REMARK   23  A    between atoms: _61  and  _62
REMARK   24  A    between atoms: _61  and  _64
REMARK   25  A    between atoms: _67  and  _69
REMARK   26  A    between atoms: _69  and  _70
REMARK   27  A    between atoms: _69  and  _72
REMARK   28  A    between atoms: _72  and  _73
REMARK   29  A    between atoms: _76  and  _78
REMARK   30  A    between atoms: _78  and  _79
REMARK   31  A    between atoms: _78  and  _81
REMARK   32  A    between atoms: _81  and  _82
REMARK   33  A    between atoms: _82  and  _83
REMARK   34  A    between atoms: _83  and  _84
REMARK   35  A    between atoms: _84  and  _85
REMARK   36  A    between atoms: _89  and  _91
REMARK   37  A    between atoms: _91  and  _92
REMARK   38  A    between atoms: _91  and  _94
REMARK   39  A    between atoms: _94  and  _95
REMARK   40  A    between atoms: _100  and  _102
REMARK   41  A    between atoms: _102  and  _103
REMARK   42  A    between atoms: _102  and  _105
REMARK   43  A    between atoms: _105  and  _106
REMARK   44  A    between atoms: _108  and  _110
REMARK   45  A    between atoms: _110  and  _111
REMARK   46  A    between atoms: _110  and  _113
REMARK   47  A    between atoms: _113  and  _114
REMARK   48  A    between atoms: _124  and  _126
REMARK   49  A    between atoms: _126  and  _127
REMARK   50  A    between atoms: _126  and  _129
REMARK   51  A    between atoms: _129  and  _130
REMARK   52  A    between atoms: _132  and  _134
REMARK   53  A    between atoms: _134  and  _135
REMARK   54  A    between atoms: _134  and  _137
REMARK   55  A    between atoms: _137  and  _138
REMARK   56  A    between atoms: _138  and  _139
REMARK   57  A    between atoms: _139  and  _140
REMARK   58  A    between atoms: _140  and  _141
REMARK   59  A    between atoms: _145  and  _147
REMARK   60  A    between atoms: _147  and  _148
REMARK   61  A    between atoms: _147  and  _150
REMARK   62  A    between atoms: _150  and  _151
REMARK   63  A    between atoms: _154  and  _156
REMARK   64  A    between atoms: _156  and  _157
REMARK   65  A    between atoms: _156  and  _159
REMARK   66  A    between atoms: _159  and  _160
REMARK   67  A    between atoms: _163  and  _165
REMARK   68  A    between atoms: _165  and  _166
REMARK   69  A    between atoms: _165  and  _168
REMARK   70  A    between atoms: _168  and  _169
REMARK   71  A    between atoms: _174  and  _175
REMARK   72  A    between atoms: _177  and  _179
REMARK   73  A    between atoms: _179  and  _180
REMARK   74  A    between atoms: _182  and  _184
REMARK   75  A    between atoms: _184  and  _185
REMARK   76  A    between atoms: _184  and  _187
REMARK   77  A    between atoms: _187  and  _188
REMARK   78  A    between atoms: _188  and  _189
REMARK   79  A    between atoms: _189  and  _190
REMARK   80  A    between atoms: _190  and  _191
REMARK   81  A    between atoms: _196  and  _197
REMARK   82  A    between atoms: _202  and  _204
REMARK   83  A    between atoms: _204  and  _205
REMARK   84  A    between atoms: _204  and  _207
REMARK   85  A    between atoms: _207  and  _208
REMARK   86  A    between atoms: _211  and  _213
REMARK   87  A    between atoms: _213  and  _214
REMARK   88  A    between atoms: _213  and  _216
REMARK   89  A    between atoms: _216  and  _217
REMARK   90  A    between atoms: _217  and  _218
REMARK   91  A    between atoms: _224  and  _225
REMARK   92  A    between atoms: _230  and  _232
REMARK   93  A    between atoms: _232  and  _233
REMARK   94  A    between atoms: _236  and  _238
REMARK   95  A    between atoms: _238  and  _239
REMARK   96  A    between atoms: _238  and  _241
REMARK   97  A    between atoms: _241  and  _242
REMARK   98  A    between atoms: _244  and  _246
REMARK   99  A    between atoms: _246  and  _247
REMARK  100  A    between atoms: _246  and  _249
REMARK  101  A    between atoms: _249  and  _250
REMARK  102  A    between atoms: _250  and  _251
REMARK  103  A    between atoms: _251  and  _252
REMARK  104  A    between atoms: _252  and  _253
REMARK  105  A    between atoms: _257  and  _259
REMARK  106  A    between atoms: _259  and  _260
REMARK  107  A    between atoms: _259  and  _262
REMARK  108  A    between atoms: _262  and  _263
REMARK  109  A    between atoms: _268  and  _269
REMARK                            x       y       z     vdW  Elec       q    Type
REMARK                         _______ _______ _______ _____ _____    ______ ____
ROOT
ATOM      1  CA  ASP A   4      34.799   8.713 -21.604  0.00  0.00    +0.160 C 
ENDROOT
BRANCH   1   4
ATOM      2  C   PRO A   3      32.570   7.943 -22.273  0.00  0.00    +0.241 C 
ATOM      3  O   PRO A   3      32.633   6.927 -21.577  0.00  0.00    -0.273 OA
ATOM      4  N   ASP A   4      33.546   8.847 -22.345  0.00  0.00    -0.297 N 
ATOM      5  H   ASP A   4      33.411   9.681 -22.952  0.00  0.00    +0.150 HD
BRANCH   2   9
ATOM      6  C   LYS A   2      30.868  10.561 -22.472  0.00  0.00    +0.244 C 
ATOM      7  O   LYS A   2      30.860  10.297 -21.269  0.00  0.00    -0.273 OA
ATOM      8  N   PRO A   3      31.127   9.641 -23.421  0.00  0.00    -0.272 N 
ATOM      9  CA  PRO A   3      31.315   8.220 -23.103  0.00  0.00    +0.152 C 
ATOM     10  CB  PRO A   3      31.430   7.563 -24.483  0.00  0.00    +0.031 C 
ATOM     11  CG  PRO A   3      31.908   8.645 -25.385  0.00  0.00    +0.024 C 
ATOM     12  CD  PRO A   3      31.308   9.914 -24.860  0.00  0.00    +0.094 C 
BRANCH   6  13
ATOM     13  CA  LYS A   2      30.582  11.983 -22.947  0.00  0.00    +0.149 C 
BRANCH  13  15
ATOM     14  C   GLY A   1      28.147  12.211 -22.981  0.00  0.00    +0.240 C 
ATOM     15  N   LYS A   2      29.319  12.473 -22.406  0.00  0.00    -0.297 N 
ATOM     16  H   LYS A   2      29.335  13.048 -21.540  0.00  0.00    +0.150 HD
ATOM     17  O   GLY A   1      28.029  11.502 -23.982  0.00  0.00    -0.274 OA
BRANCH  14  18
ATOM     18  CA  GLY A   1      26.927  12.837 -22.331  0.00  0.00    +0.169 C 
BRANCH  18  19
ATOM     19  N   GLY A   1      27.259  13.784 -21.267  0.00  0.00    -0.236 NA
ATOM     20  H   GLY A   1      27.072  13.512 -20.281  0.00  0.00    +0.142 HD
ENDBRANCH  18  19
ENDBRANCH  14  18
ENDBRANCH  13  15
BRANCH  13  21
ATOM     21  CB  LYS A   2      31.729  12.927 -22.575  0.00  0.00    +0.029 C 
BRANCH  21  22
ATOM     22  CG  LYS A   2      31.685  14.260 -23.306  0.00  0.00    +0.000 C 
BRANCH  22  23
ATOM     23  CD  LYS A   2      32.895  15.116 -22.973  0.00  0.00    -0.024 C 
BRANCH  23  24
ATOM     24  CE  LYS A   2      32.979  16.328 -23.888  0.00  0.00    -0.086 C 
BRANCH  24  25
ATOM     25  NZ  LYS A   2      34.159  17.184 -23.576  0.00  0.00    +0.380 N 
ATOM     26  HZ1 LYS A   2      34.091  17.522 -22.595  0.00  0.00    -0.089 HD
ATOM     27  HZ2 LYS A   2      35.030  16.628 -23.693  0.00  0.00    -0.089 HD
ATOM     28  HZ3 LYS A   2      34.176  17.998 -24.224  0.00  0.00    -0.089 HD
ENDBRANCH  24  25
ENDBRANCH  23  24
ENDBRANCH  22  23
ENDBRANCH  21  22
ENDBRANCH  13  21
ENDBRANCH   6  13
ENDBRANCH   2   9
ENDBRANCH   1   4
BRANCH   1  29
ATOM     29  C   ASP A   4      34.750   9.361 -20.211  0.00  0.00    +0.241 C 
ATOM     30  O   ASP A   4      35.783   9.495 -19.547  0.00  0.00    -0.273 OA
ATOM     31  N   GLN A   5      33.555   9.752 -19.768  0.00  0.00    -0.297 N 
ATOM     32  H   GLN A   5      32.721   9.620 -20.376  0.00  0.00    +0.150 HD
BRANCH  31  33
ATOM     33  CA  GLN A   5      33.385  10.365 -18.444  0.00  0.00    +0.149 C 
BRANCH  33  34
ATOM     34  C   GLN A   5      32.342   9.646 -17.574  0.00  0.00    +0.244 C 
ATOM     35  N   PRO A   6      32.621   8.383 -17.183  0.00  0.00    -0.272 N 
ATOM     36  CA  PRO A   6      31.641   7.632 -16.397  0.00  0.00    +0.152 C 
ATOM     37  CB  PRO A   6      32.112   6.185 -16.551  0.00  0.00    +0.031 C 
ATOM     38  CG  PRO A   6      33.575   6.291 -16.722  0.00  0.00    +0.024 C 
ATOM     39  CD  PRO A   6      33.823   7.574 -17.468  0.00  0.00    +0.094 C 
ATOM     40  O   GLN A   5      31.301  10.223 -17.248  0.00  0.00    -0.273 OA
BRANCH  36  41
ATOM     41  C   PRO A   6      31.608   8.007 -14.915  0.00  0.00    +0.241 C 
ATOM     42  O   PRO A   6      32.645   8.323 -14.322  0.00  0.00    -0.273 OA
ATOM     43  N   ALA A   7      30.410   7.972 -14.340  0.00  0.00    -0.298 N 
ATOM     44  H   ALA A   7      29.573   7.837 -14.942  0.00  0.00    +0.150 HD
BRANCH  43  45
ATOM     45  CA  ALA A   7      30.219   8.115 -12.904  0.00  0.00    +0.137 C 
ATOM     46  CB  ALA A   7      29.719   9.506 -12.561  0.00  0.00    +0.030 C 
BRANCH  45  47
ATOM     47  C   ALA A   7      29.235   7.055 -12.428  0.00  0.00    +0.227 C 
ATOM     48  O   ALA A   7      28.240   6.770 -13.102  0.00  0.00    -0.286 OA
ENDBRANCH  45  47
ENDBRANCH  43  45
ENDBRANCH  36  41
ENDBRANCH  33  34
BRANCH  33  49
ATOM     49  CB  GLN A   5      33.048  11.859 -18.577  0.00  0.00    +0.039 C 
BRANCH  49  50
ATOM     50  CG  GLN A   5      34.159  12.703 -19.206  0.00  0.00    +0.087 C 
BRANCH  50  51
ATOM     51  CD  GLN A   5      33.808  14.178 -19.330  0.00  0.00    +0.219 C 
ATOM     52  OE1 GLN A   5      32.673  14.591 -19.079  0.00  0.00    -0.275 OA
ATOM     53  NE2 GLN A   5      34.791  14.983 -19.720  0.00  0.00    -0.329 N 
ATOM     54 HE21 GLN A   5      34.617  16.003 -19.824  0.00  0.00    +0.145 HD
ATOM     55 HE22 GLN A   5      35.734  14.593 -19.921  0.00  0.00    +0.145 HD
ENDBRANCH  50  51
ENDBRANCH  49  50
ENDBRANCH  33  49
ENDBRANCH  31  33
ENDBRANCH   1  29
BRANCH   1  56
ATOM     56  CB  ASP A   4      35.980   9.262 -22.428  0.00  0.00    +0.143 C 
BRANCH  56  57
ATOM     57  CG  ASP A   4      35.902  10.772 -22.654  0.00  0.00    +0.367 C 
ATOM     58  OD2 ASP A   4      34.781  11.324 -22.719  0.00  0.00    -0.246 OA
ATOM     59  OD1 ASP A   4      36.971  11.411 -22.774  0.00  0.00    -0.246 OA
ENDBRANCH  56  57
ENDBRANCH   1  56
TORSDOF 22
REMARK  Name = ../refined-set-2016/3qnd/3qnd_pocket.pdb
REMARK  109 active torsions:
REMARK  status: ('A' for Active; 'I' for Inactive)
REMARK    1  A    between atoms: _1  and  _3
REMARK    2  A    between atoms: _3  and  _4
REMARK    3  A    between atoms: _3  and  _6
REMARK    4  A    between atoms: _9  and  _11
REMARK    5  A    between atoms: _11  and  _12
REMARK    6  A    between atoms: _11  and  _14
REMARK    7  A    between atoms: _14  and  _15
REMARK    8  A    between atoms: _20  and  _21
REMARK    9  A    between atoms: _23  and  _25
REMARK   10  A    between atoms: _25  and  _26
REMARK   11  A    between atoms: _28  and  _30
REMARK   12  A    between atoms: _30  and  _31
REMARK   13  A    between atoms: _30  and  _33
REMARK   14  A    between atoms: _33  and  _34
REMARK   15  A    between atoms: _37  and  _39
REMARK   16  A    between atoms: _39  and  _40
REMARK   17  A    between atoms: _39  and  _42
REMARK   18  A    between atoms: _42  and  _43
REMARK   19  A    between atoms: _47  and  _48
REMARK   20  A    between atoms: _53  and  _55
REMARK   21  A    between atoms: _55  and  _56
REMARK   22  A    between atoms: _59  and  _61
REMARK   23  A    between atoms: _61  and  _62
REMARK   24  A    between atoms: _61  and  _64
REMARK   25  A    between atoms: _67  and  _69
REMARK   26  A    between atoms: _69  and  _70
REMARK   27  A    between atoms: _69  and  _72
REMARK   28  A    between atoms: _72  and  _73
REMARK   29  A    between atoms: _76  and  _78
REMARK   30  A    between atoms: _78  and  _79
REMARK   31  A    between atoms: _78  and  _81
REMARK   32  A    between atoms: _81  and  _82
REMARK   33  A    between atoms: _82  and  _83
REMARK   34  A    between atoms: _83  and  _84
REMARK   35  A    between atoms: _84  and  _85
REMARK   36  A    between atoms: _89  and  _91
REMARK   37  A    between atoms: _91  and  _92
REMARK   38  A    between atoms: _91  and  _94
REMARK   39  A    between atoms: _94  and  _95
REMARK   40  A    between atoms: _100  and  _102
REMARK   41  A    between atoms: _102  and  _103
REMARK   42  A    between atoms: _102  and  _105
REMARK   43  A    between atoms: _105  and  _106
REMARK   44  A    between atoms: _108  and  _110
REMARK   45  A    between atoms: _110  and  _111
REMARK   46  A    between atoms: _110  and  _113
REMARK   47  A    between atoms: _113  and  _114
REMARK   48  A    between atoms: _124  and  _126
REMARK   49  A    between atoms: _126  and  _127
REMARK   50  A    between atoms: _126  and  _129
REMARK   51  A    between atoms: _129  and  _130
REMARK   52  A    between atoms: _132  and  _134
REMARK   53  A    between atoms: _134  and  _135
REMARK   54  A    between atoms: _134  and  _137
REMARK   55  A    between atoms: _137  and  _138
REMARK   56  A    between atoms: _138  and  _139
REMARK   57  A    between atoms: _139  and  _140
REMARK   58  A    between atoms: _140  and  _141
REMARK   59  A    between atoms: _145  and  _147
REMARK   60  A    between atoms: _147  and  _148
REMARK   61  A    between atoms: _147  and  _150
REMARK   62  A    between atoms: _150  and  _151
REMARK   63  A    between atoms: _154  and  _156
REMARK   64  A    between atoms: _156  and  _157
REMARK   65  A    between atoms: _156  and  _159
REMARK   66  A    between atoms: _159  and  _160
REMARK   67  A    between atoms: _163  and  _165
REMARK   68  A    between atoms: _165  and  _166
REMARK   69  A    between atoms: _165  and  _168
REMARK   70  A    between atoms: _168  and  _169
REMARK   71  A    between atoms: _174  and  _175
REMARK   72  A    between atoms: _177  and  _179
REMARK   73  A    between atoms: _179  and  _180
REMARK   74  A    between atoms: _182  and  _184
REMARK   75  A    between atoms: _184  and  _185
REMARK   76  A    between atoms: _184  and  _187
REMARK   77  A    between atoms: _187  and  _188
REMARK   78  A    between atoms: _188  and  _189
REMARK   79  A    between atoms: _189  and  _190
REMARK   80  A    between atoms: _190  and  _191
REMARK   81  A    between atoms: _196  and  _197
REMARK   82  A    between atoms: _202  and  _204
REMARK   83  A    between atoms: _204  and  _205
REMARK   84  A    between atoms: _204  and  _207
REMARK   85  A    between atoms: _207  and  _208
REMARK   86  A    between atoms: _211  and  _213
REMARK   87  A    between atoms: _213  and  _214
REMARK   88  A    between atoms: _213  and  _216
REMARK   89  A    between atoms: _216  and  _217
REMARK   90  A    between atoms: _217  and  _218
REMARK   91  A    between atoms: _224  and  _225
REMARK   92  A    between atoms: _230  and  _232
REMARK   93  A    between atoms: _232  and  _233
REMARK   94  A    between atoms: _236  and  _238
REMARK   95  A    between atoms: _238  and  _239
REMARK   96  A    between atoms: _238  and  _241
REMARK   97  A    between atoms: _241  and  _242
REMARK   98  A    between atoms: _244  and  _246
REMARK   99  A    between atoms: _246  and  _247
REMARK  100  A    between atoms: _246  and  _249
REMARK  101  A    between atoms: _249  and  _250
REMARK  102  A    between atoms: _250  and  _251
REMARK  103  A    between atoms: _251  and  _252
REMARK  104  A    between atoms: _252  and  _253
REMARK  105  A    between atoms: _257  and  _259
REMARK  106  A    between atoms: _259  and  _260
REMARK  107  A    between atoms: _259  and  _262
REMARK  108  A    between atoms: _262  and  _263
REMARK  109  A    between atoms: _268  and  _269
REMARK                            x       y       z     vdW  Elec       q    Type
REMARK                         _______ _______ _______ _____ _____    ______ ____
ROOT
ATOM      1  CA  LYS A   2      38.653   9.143 -12.590  0.00  0.00    +0.137 C 
ENDROOT
BRANCH   1   4
ATOM      2  C   SER A   1      38.248   7.736 -10.635  0.00  0.00    +0.241 C 
ATOM      3  O   SER A   1      39.454   7.559 -10.446  0.00  0.00    -0.274 OA
ATOM      4  N   LYS A   2      37.773   8.457 -11.647  0.00  0.00    -0.298 N 
ATOM      5  H   LYS A   2      36.743   8.535 -11.771  0.00  0.00    +0.150 HD
BRANCH   2   6
ATOM      6  CA  SER A   1      37.214   7.126  -9.686  0.00  0.00    +0.174 C 
BRANCH   6   7
ATOM      7  N   SER A   1      35.845   7.531 -10.005  0.00  0.00    -0.236 NA
ATOM      8  H   SER A   1      35.423   7.217 -10.902  0.00  0.00    +0.142 HD
ENDBRANCH   6   7
BRANCH   6   9
ATOM      9  CB  SER A   1      37.331   5.598  -9.665  0.00  0.00    +0.163 C 
BRANCH   9  10
ATOM     10  OG  SER A   1      36.903   5.030 -10.890  0.00  0.00    -0.380 OA
ATOM     11  H   SER A   1      35.956   5.271 -11.051  0.00  0.00    +0.211 HD
ENDBRANCH   9  10
ENDBRANCH   6   9
ENDBRANCH   2   6
ENDBRANCH   1   4
BRANCH   1  12
ATOM     12  C   LYS A   2      38.902  10.591 -12.166  0.00  0.00    +0.227 C 
ATOM     13  O   LYS A   2      38.066  11.204 -11.497  0.00  0.00    -0.286 OA
ENDBRANCH   1  12
BRANCH   1  14
ATOM     14  CB  LYS A   2      38.079   9.081 -14.009  0.00  0.00    +0.028 C 
BRANCH  14  15
ATOM     15  CG  LYS A   2      38.115   7.682 -14.626  0.00  0.00    -0.000 C 
BRANCH  15  16
ATOM     16  CD  LYS A   2      37.479   7.638 -16.010  0.00  0.00    -0.024 C 
BRANCH  16  17
ATOM     17  CE  LYS A   2      38.436   8.122 -17.090  0.00  0.00    -0.086 C 
BRANCH  17  18
ATOM     18  NZ  LYS A   2      37.868   7.928 -18.452  0.00  0.00    +0.380 N 
ATOM     19  HZ1 LYS A   2      36.980   8.463 -18.535  0.00  0.00    -0.089 HD
ATOM     20  HZ2 LYS A   2      37.681   6.917 -18.607  0.00  0.00    -0.089 HD
ATOM     21  HZ3 LYS A   2      38.548   8.269 -19.162  0.00  0.00    -0.089 HD
ENDBRANCH  17  18
ENDBRANCH  16  17
ENDBRANCH  15  16
ENDBRANCH  14  15
ENDBRANCH   1  14
TORSDOF 11
REMARK  Name = ../refined-set-2016/3qnd/3qnd_pocket.pdb
REMARK  109 active torsions:
REMARK  status: ('A' for Active; 'I' for Inactive)
REMARK    1  A    between atoms: _1  and  _3
REMARK    2  A    between atoms: _3  and  _4
REMARK    3  A    between atoms: _3  and  _6
REMARK    4  A    between atoms: _9  and  _11
REMARK    5  A    between atoms: _11  and  _12
REMARK    6  A    between atoms: _11  and  _14
REMARK    7  A    between atoms: _14  and  _15
REMARK    8  A    between atoms: _20  and  _21
REMARK    9  A    between atoms: _23  and  _25
REMARK   10  A    between atoms: _25  and  _26
REMARK   11  A    between atoms: _28  and  _30
REMARK   12  A    between atoms: _30  and  _31
REMARK   13  A    between atoms: _30  and  _33
REMARK   14  A    between atoms: _33  and  _34
REMARK   15  A    between atoms: _37  and  _39
REMARK   16  A    between atoms: _39  and  _40
REMARK   17  A    between atoms: _39  and  _42
REMARK   18  A    between atoms: _42  and  _43
REMARK   19  A    between atoms: _47  and  _48
REMARK   20  A    between atoms: _53  and  _55
REMARK   21  A    between atoms: _55  and  _56
REMARK   22  A    between atoms: _59  and  _61
REMARK   23  A    between atoms: _61  and  _62
REMARK   24  A    between atoms: _61  and  _64
REMARK   25  A    between atoms: _67  and  _69
REMARK   26  A    between atoms: _69  and  _70
REMARK   27  A    between atoms: _69  and  _72
REMARK   28  A    between atoms: _72  and  _73
REMARK   29  A    between atoms: _76  and  _78
REMARK   30  A    between atoms: _78  and  _79
REMARK   31  A    between atoms: _78  and  _81
REMARK   32  A    between atoms: _81  and  _82
REMARK   33  A    between atoms: _82  and  _83
REMARK   34  A    between atoms: _83  and  _84
REMARK   35  A    between atoms: _84  and  _85
REMARK   36  A    between atoms: _89  and  _91
REMARK   37  A    between atoms: _91  and  _92
REMARK   38  A    between atoms: _91  and  _94
REMARK   39  A    between atoms: _94  and  _95
REMARK   40  A    between atoms: _100  and  _102
REMARK   41  A    between atoms: _102  and  _103
REMARK   42  A    between atoms: _102  and  _105
REMARK   43  A    between atoms: _105  and  _106
REMARK   44  A    between atoms: _108  and  _110
REMARK   45  A    between atoms: _110  and  _111
REMARK   46  A    between atoms: _110  and  _113
REMARK   47  A    between atoms: _113  and  _114
REMARK   48  A    between atoms: _124  and  _126
REMARK   49  A    between atoms: _126  and  _127
REMARK   50  A    between atoms: _126  and  _129
REMARK   51  A    between atoms: _129  and  _130
REMARK   52  A    between atoms: _132  and  _134
REMARK   53  A    between atoms: _134  and  _135
REMARK   54  A    between atoms: _134  and  _137
REMARK   55  A    between atoms: _137  and  _138
REMARK   56  A    between atoms: _138  and  _139
REMARK   57  A    between atoms: _139  and  _140
REMARK   58  A    between atoms: _140  and  _141
REMARK   59  A    between atoms: _145  and  _147
REMARK   60  A    between atoms: _147  and  _148
REMARK   61  A    between atoms: _147  and  _150
REMARK   62  A    between atoms: _150  and  _151
REMARK   63  A    between atoms: _154  and  _156
REMARK   64  A    between atoms: _156  and  _157
REMARK   65  A    between atoms: _156  and  _159
REMARK   66  A    between atoms: _159  and  _160
REMARK   67  A    between atoms: _163  and  _165
REMARK   68  A    between atoms: _165  and  _166
REMARK   69  A    between atoms: _165  and  _168
REMARK   70  A    between atoms: _168  and  _169
REMARK   71  A    between atoms: _174  and  _175
REMARK   72  A    between atoms: _177  and  _179
REMARK   73  A    between atoms: _179  and  _180
REMARK   74  A    between atoms: _182  and  _184
REMARK   75  A    between atoms: _184  and  _185
REMARK   76  A    between atoms: _184  and  _187
REMARK   77  A    between atoms: _187  and  _188
REMARK   78  A    between atoms: _188  and  _189
REMARK   79  A    between atoms: _189  and  _190
REMARK   80  A    between atoms: _190  and  _191
REMARK   81  A    between atoms: _196  and  _197
REMARK   82  A    between atoms: _202  and  _204
REMARK   83  A    between atoms: _204  and  _205
REMARK   84  A    between atoms: _204  and  _207
REMARK   85  A    between atoms: _207  and  _208
REMARK   86  A    between atoms: _211  and  _213
REMARK   87  A    between atoms: _213  and  _214
REMARK   88  A    between atoms: _213  and  _216
REMARK   89  A    between atoms: _216  and  _217
REMARK   90  A    between atoms: _217  and  _218
REMARK   91  A    between atoms: _224  and  _225
REMARK   92  A    between atoms: _230  and  _232
REMARK   93  A    between atoms: _232  and  _233
REMARK   94  A    between atoms: _236  and  _238
REMARK   95  A    between atoms: _238  and  _239
REMARK   96  A    between atoms: _238  and  _241
REMARK   97  A    between atoms: _241  and  _242
REMARK   98  A    between atoms: _244  and  _246
REMARK   99  A    between atoms: _246  and  _247
REMARK  100  A    between atoms: _246  and  _249
REMARK  101  A    between atoms: _249  and  _250
REMARK  102  A    between atoms: _250  and  _251
REMARK  103  A    between atoms: _251  and  _252
REMARK  104  A    between atoms: _252  and  _253
REMARK  105  A    between atoms: _257  and  _259
REMARK  106  A    between atoms: _259  and  _260
REMARK  107  A    between atoms: _259  and  _262
REMARK  108  A    between atoms: _262  and  _263
REMARK  109  A    between atoms: _268  and  _269
REMARK                            x       y       z     vdW  Elec       q    Type
REMARK                         _______ _______ _______ _____ _____    ______ ____
ROOT
ATOM      1  CG  TYR A   1      36.057  13.569 -14.159  0.00  0.00    -0.020 A 
ATOM      2  CD2 TYR A   1      35.482  12.704 -13.229  0.00  0.00    -0.001 A 
ATOM      3  CE2 TYR A   1      34.990  11.462 -13.611  0.00  0.00    +0.036 A 
ATOM      4  CZ  TYR A   1      35.067  11.074 -14.936  0.00  0.00    +0.134 A 
ATOM      5  CE1 TYR A   1      35.631  11.914 -15.883  0.00  0.00    +0.036 A 
ATOM      6  CD1 TYR A   1      36.120  13.159 -15.492  0.00  0.00    -0.001 A 
ENDROOT
BRANCH   4   7
ATOM      7  OH  TYR A   1      34.579   9.845 -15.308  0.00  0.00    -0.506 OA
ATOM      8  HH  TYR A   1      33.614   9.796 -15.094  0.00  0.00    +0.292 HD
ENDBRANCH   4   7
BRANCH   1   9
ATOM      9  CB  TYR A   1      36.585  14.921 -13.732  0.00  0.00    +0.051 C 
BRANCH   9  10
ATOM     10  CA  TYR A   1      38.108  15.055 -13.816  0.00  0.00    +0.137 C 
BRANCH  10  11
ATOM     11  N   TYR A   1      38.765  14.116 -12.907  0.00  0.00    -0.239 NA
ATOM     12  H   TYR A   1      38.346  13.942 -11.971  0.00  0.00    +0.142 HD
ENDBRANCH  10  11
BRANCH  10  13
ATOM     13  C   TYR A   1      38.518  16.498 -13.553  0.00  0.00    +0.224 C 
ATOM     14  O   TYR A   1      38.543  16.945 -12.406  0.00  0.00    -0.287 OA
ENDBRANCH  10  13
ENDBRANCH   9  10
ENDBRANCH   1   9
TORSDOF 5
REMARK  Name = ../refined-set-2016/3qnd/3qnd_pocket.pdb
REMARK  109 active torsions:
REMARK  status: ('A' for Active; 'I' for Inactive)
REMARK    1  A    between atoms: _1  and  _3
REMARK    2  A    between atoms: _3  and  _4
REMARK    3  A    between atoms: _3  and  _6
REMARK    4  A    between atoms: _9  and  _11
REMARK    5  A    between atoms: _11  and  _12
REMARK    6  A    between atoms: _11  and  _14
REMARK    7  A    between atoms: _14  and  _15
REMARK    8  A    between atoms: _20  and  _21
REMARK    9  A    between atoms: _23  and  _25
REMARK   10  A    between atoms: _25  and  _26
REMARK   11  A    between atoms: _28  and  _30
REMARK   12  A    between atoms: _30  and  _31
REMARK   13  A    between atoms: _30  and  _33
REMARK   14  A    between atoms: _33  and  _34
REMARK   15  A    between atoms: _37  and  _39
REMARK   16  A    between atoms: _39  and  _40
REMARK   17  A    between atoms: _39  and  _42
REMARK   18  A    between atoms: _42  and  _43
REMARK   19  A    between atoms: _47  and  _48
REMARK   20  A    between atoms: _53  and  _55
REMARK   21  A    between atoms: _55  and  _56
REMARK   22  A    between atoms: _59  and  _61
REMARK   23  A    between atoms: _61  and  _62
REMARK   24  A    between atoms: _61  and  _64
REMARK   25  A    between atoms: _67  and  _69
REMARK   26  A    between atoms: _69  and  _70
REMARK   27  A    between atoms: _69  and  _72
REMARK   28  A    between atoms: _72  and  _73
REMARK   29  A    between atoms: _76  and  _78
REMARK   30  A    between atoms: _78  and  _79
REMARK   31  A    between atoms: _78  and  _81
REMARK   32  A    between atoms: _81  and  _82
REMARK   33  A    between atoms: _82  and  _83
REMARK   34  A    between atoms: _83  and  _84
REMARK   35  A    between atoms: _84  and  _85
REMARK   36  A    between atoms: _89  and  _91
REMARK   37  A    between atoms: _91  and  _92
REMARK   38  A    between atoms: _91  and  _94
REMARK   39  A    between atoms: _94  and  _95
REMARK   40  A    between atoms: _100  and  _102
REMARK   41  A    between atoms: _102  and  _103
REMARK   42  A    between atoms: _102  and  _105
REMARK   43  A    between atoms: _105  and  _106
REMARK   44  A    between atoms: _108  and  _110
REMARK   45  A    between atoms: _110  and  _111
REMARK   46  A    between atoms: _110  and  _113
REMARK   47  A    between atoms: _113  and  _114
REMARK   48  A    between atoms: _124  and  _126
REMARK   49  A    between atoms: _126  and  _127
REMARK   50  A    between atoms: _126  and  _129
REMARK   51  A    between atoms: _129  and  _130
REMARK   52  A    between atoms: _132  and  _134
REMARK   53  A    between atoms: _134  and  _135
REMARK   54  A    between atoms: _134  and  _137
REMARK   55  A    between atoms: _137  and  _138
REMARK   56  A    between atoms: _138  and  _139
REMARK   57  A    between atoms: _139  and  _140
REMARK   58  A    between atoms: _140  and  _141
REMARK   59  A    between atoms: _145  and  _147
REMARK   60  A    between atoms: _147  and  _148
REMARK   61  A    between atoms: _147  and  _150
REMARK   62  A    between atoms: _150  and  _151
REMARK   63  A    between atoms: _154  and  _156
REMARK   64  A    between atoms: _156  and  _157
REMARK   65  A    between atoms: _156  and  _159
REMARK   66  A    between atoms: _159  and  _160
REMARK   67  A    between atoms: _163  and  _165
REMARK   68  A    between atoms: _165  and  _166
REMARK   69  A    between atoms: _165  and  _168
REMARK   70  A    between atoms: _168  and  _169
REMARK   71  A    between atoms: _174  and  _175
REMARK   72  A    between atoms: _177  and  _179
REMARK   73  A    between atoms: _179  and  _180
REMARK   74  A    between atoms: _182  and  _184
REMARK   75  A    between atoms: _184  and  _185
REMARK   76  A    between atoms: _184  and  _187
REMARK   77  A    between atoms: _187  and  _188
REMARK   78  A    between atoms: _188  and  _189
REMARK   79  A    between atoms: _189  and  _190
REMARK   80  A    between atoms: _190  and  _191
REMARK   81  A    between atoms: _196  and  _197
REMARK   82  A    between atoms: _202  and  _204
REMARK   83  A    between atoms: _204  and  _205
REMARK   84  A    between atoms: _204  and  _207
REMARK   85  A    between atoms: _207  and  _208
REMARK   86  A    between atoms: _211  and  _213
REMARK   87  A    between atoms: _213  and  _214
REMARK   88  A    between atoms: _213  and  _216
REMARK   89  A    between atoms: _216  and  _217
REMARK   90  A    between atoms: _217  and  _218
REMARK   91  A    between atoms: _224  and  _225
REMARK   92  A    between atoms: _230  and  _232
REMARK   93  A    between atoms: _232  and  _233
REMARK   94  A    between atoms: _236  and  _238
REMARK   95  A    between atoms: _238  and  _239
REMARK   96  A    between atoms: _238  and  _241
REMARK   97  A    between atoms: _241  and  _242
REMARK   98  A    between atoms: _244  and  _246
REMARK   99  A    between atoms: _246  and  _247
REMARK  100  A    between atoms: _246  and  _249
REMARK  101  A    between atoms: _249  and  _250
REMARK  102  A    between atoms: _250  and  _251
REMARK  103  A    between atoms: _251  and  _252
REMARK  104  A    between atoms: _252  and  _253
REMARK  105  A    between atoms: _257  and  _259
REMARK  106  A    between atoms: _259  and  _260
REMARK  107  A    between atoms: _259  and  _262
REMARK  108  A    between atoms: _262  and  _263
REMARK  109  A    between atoms: _268  and  _269
REMARK                            x       y       z     vdW  Elec       q    Type
REMARK                         _______ _______ _______ _____ _____    ______ ____
ROOT
ATOM      1  O   HOH     1      27.839   4.526 -29.542  0.00  0.00    +0.000 OA
ENDROOT
TORSDOF 0
REMARK  Name = ../refined-set-2016/3qnd/3qnd_pocket.pdb
REMARK  109 active torsions:
REMARK  status: ('A' for Active; 'I' for Inactive)
REMARK    1  A    between atoms: _1  and  _3
REMARK    2  A    between atoms: _3  and  _4
REMARK    3  A    between atoms: _3  and  _6
REMARK    4  A    between atoms: _9  and  _11
REMARK    5  A    between atoms: _11  and  _12
REMARK    6  A    between atoms: _11  and  _14
REMARK    7  A    between atoms: _14  and  _15
REMARK    8  A    between atoms: _20  and  _21
REMARK    9  A    between atoms: _23  and  _25
REMARK   10  A    between atoms: _25  and  _26
REMARK   11  A    between atoms: _28  and  _30
REMARK   12  A    between atoms: _30  and  _31
REMARK   13  A    between atoms: _30  and  _33
REMARK   14  A    between atoms: _33  and  _34
REMARK   15  A    between atoms: _37  and  _39
REMARK   16  A    between atoms: _39  and  _40
REMARK   17  A    between atoms: _39  and  _42
REMARK   18  A    between atoms: _42  and  _43
REMARK   19  A    between atoms: _47  and  _48
REMARK   20  A    between atoms: _53  and  _55
REMARK   21  A    between atoms: _55  and  _56
REMARK   22  A    between atoms: _59  and  _61
REMARK   23  A    between atoms: _61  and  _62
REMARK   24  A    between atoms: _61  and  _64
REMARK   25  A    between atoms: _67  and  _69
REMARK   26  A    between atoms: _69  and  _70
REMARK   27  A    between atoms: _69  and  _72
REMARK   28  A    between atoms: _72  and  _73
REMARK   29  A    between atoms: _76  and  _78
REMARK   30  A    between atoms: _78  and  _79
REMARK   31  A    between atoms: _78  and  _81
REMARK   32  A    between atoms: _81  and  _82
REMARK   33  A    between atoms: _82  and  _83
REMARK   34  A    between atoms: _83  and  _84
REMARK   35  A    between atoms: _84  and  _85
REMARK   36  A    between atoms: _89  and  _91
REMARK   37  A    between atoms: _91  and  _92
REMARK   38  A    between atoms: _91  and  _94
REMARK   39  A    between atoms: _94  and  _95
REMARK   40  A    between atoms: _100  and  _102
REMARK   41  A    between atoms: _102  and  _103
REMARK   42  A    between atoms: _102  and  _105
REMARK   43  A    between atoms: _105  and  _106
REMARK   44  A    between atoms: _108  and  _110
REMARK   45  A    between atoms: _110  and  _111
REMARK   46  A    between atoms: _110  and  _113
REMARK   47  A    between atoms: _113  and  _114
REMARK   48  A    between atoms: _124  and  _126
REMARK   49  A    between atoms: _126  and  _127
REMARK   50  A    between atoms: _126  and  _129
REMARK   51  A    between atoms: _129  and  _130
REMARK   52  A    between atoms: _132  and  _134
REMARK   53  A    between atoms: _134  and  _135
REMARK   54  A    between atoms: _134  and  _137
REMARK   55  A    between atoms: _137  and  _138
REMARK   56  A    between atoms: _138  and  _139
REMARK   57  A    between atoms: _139  and  _140
REMARK   58  A    between atoms: _140  and  _141
REMARK   59  A    between atoms: _145  and  _147
REMARK   60  A    between atoms: _147  and  _148
REMARK   61  A    between atoms: _147  and  _150
REMARK   62  A    between atoms: _150  and  _151
REMARK   63  A    between atoms: _154  and  _156
REMARK   64  A    between atoms: _156  and  _157
REMARK   65  A    between atoms: _156  and  _159
REMARK   66  A    between atoms: _159  and  _160
REMARK   67  A    between atoms: _163  and  _165
REMARK   68  A    between atoms: _165  and  _166
REMARK   69  A    between atoms: _165  and  _168
REMARK   70  A    between atoms: _168  and  _169
REMARK   71  A    between atoms: _174  and  _175
REMARK   72  A    between atoms: _177  and  _179
REMARK   73  A    between atoms: _179  and  _180
REMARK   74  A    between atoms: _182  and  _184
REMARK   75  A    between atoms: _184  and  _185
REMARK   76  A    between atoms: _184  and  _187
REMARK   77  A    between atoms: _187  and  _188
REMARK   78  A    between atoms: _188  and  _189
REMARK   79  A    between atoms: _189  and  _190
REMARK   80  A    between atoms: _190  and  _191
REMARK   81  A    between atoms: _196  and  _197
REMARK   82  A    between atoms: _202  and  _204
REMARK   83  A    between atoms: _204  and  _205
REMARK   84  A    between atoms: _204  and  _207
REMARK   85  A    between atoms: _207  and  _208
REMARK   86  A    between atoms: _211  and  _213
REMARK   87  A    between atoms: _213  and  _214
REMARK   88  A    between atoms: _213  and  _216
REMARK   89  A    between atoms: _216  and  _217
REMARK   90  A    between atoms: _217  and  _218
REMARK   91  A    between atoms: _224  and  _225
REMARK   92  A    between atoms: _230  and  _232
REMARK   93  A    between atoms: _232  and  _233
REMARK   94  A    between atoms: _236  and  _238
REMARK   95  A    between atoms: _238  and  _239
REMARK   96  A    between atoms: _238  and  _241
REMARK   97  A    between atoms: _241  and  _242
REMARK   98  A    between atoms: _244  and  _246
REMARK   99  A    between atoms: _246  and  _247
REMARK  100  A    between atoms: _246  and  _249
REMARK  101  A    between atoms: _249  and  _250
REMARK  102  A    between atoms: _250  and  _251
REMARK  103  A    between atoms: _251  and  _252
REMARK  104  A    between atoms: _252  and  _253
REMARK  105  A    between atoms: _257  and  _259
REMARK  106  A    between atoms: _259  and  _260
REMARK  107  A    between atoms: _259  and  _262
REMARK  108  A    between atoms: _262  and  _263
REMARK  109  A    between atoms: _268  and  _269
REMARK                            x       y       z     vdW  Elec       q    Type
REMARK                         _______ _______ _______ _____ _____    ______ ____
ROOT
ATOM      1  O   HOH     1      27.643   1.775 -22.046  0.00  0.00    +0.000 OA
ENDROOT
TORSDOF 0
REMARK  Name = ../refined-set-2016/3qnd/3qnd_pocket.pdb
REMARK  109 active torsions:
REMARK  status: ('A' for Active; 'I' for Inactive)
REMARK    1  A    between atoms: _1  and  _3
REMARK    2  A    between atoms: _3  and  _4
REMARK    3  A    between atoms: _3  and  _6
REMARK    4  A    between atoms: _9  and  _11
REMARK    5  A    between atoms: _11  and  _12
REMARK    6  A    between atoms: _11  and  _14
REMARK    7  A    between atoms: _14  and  _15
REMARK    8  A    between atoms: _20  and  _21
REMARK    9  A    between atoms: _23  and  _25
REMARK   10  A    between atoms: _25  and  _26
REMARK   11  A    between atoms: _28  and  _30
REMARK   12  A    between atoms: _30  and  _31
REMARK   13  A    between atoms: _30  and  _33
REMARK   14  A    between atoms: _33  and  _34
REMARK   15  A    between atoms: _37  and  _39
REMARK   16  A    between atoms: _39  and  _40
REMARK   17  A    between atoms: _39  and  _42
REMARK   18  A    between atoms: _42  and  _43
REMARK   19  A    between atoms: _47  and  _48
REMARK   20  A    between atoms: _53  and  _55
REMARK   21  A    between atoms: _55  and  _56
REMARK   22  A    between atoms: _59  and  _61
REMARK   23  A    between atoms: _61  and  _62
REMARK   24  A    between atoms: _61  and  _64
REMARK   25  A    between atoms: _67  and  _69
REMARK   26  A    between atoms: _69  and  _70
REMARK   27  A    between atoms: _69  and  _72
REMARK   28  A    between atoms: _72  and  _73
REMARK   29  A    between atoms: _76  and  _78
REMARK   30  A    between atoms: _78  and  _79
REMARK   31  A    between atoms: _78  and  _81
REMARK   32  A    between atoms: _81  and  _82
REMARK   33  A    between atoms: _82  and  _83
REMARK   34  A    between atoms: _83  and  _84
REMARK   35  A    between atoms: _84  and  _85
REMARK   36  A    between atoms: _89  and  _91
REMARK   37  A    between atoms: _91  and  _92
REMARK   38  A    between atoms: _91  and  _94
REMARK   39  A    between atoms: _94  and  _95
REMARK   40  A    between atoms: _100  and  _102
REMARK   41  A    between atoms: _102  and  _103
REMARK   42  A    between atoms: _102  and  _105
REMARK   43  A    between atoms: _105  and  _106
REMARK   44  A    between atoms: _108  and  _110
REMARK   45  A    between atoms: _110  and  _111
REMARK   46  A    between atoms: _110  and  _113
REMARK   47  A    between atoms: _113  and  _114
REMARK   48  A    between atoms: _124  and  _126
REMARK   49  A    between atoms: _126  and  _127
REMARK   50  A    between atoms: _126  and  _129
REMARK   51  A    between atoms: _129  and  _130
REMARK   52  A    between atoms: _132  and  _134
REMARK   53  A    between atoms: _134  and  _135
REMARK   54  A    between atoms: _134  and  _137
REMARK   55  A    between atoms: _137  and  _138
REMARK   56  A    between atoms: _138  and  _139
REMARK   57  A    between atoms: _139  and  _140
REMARK   58  A    between atoms: _140  and  _141
REMARK   59  A    between atoms: _145  and  _147
REMARK   60  A    between atoms: _147  and  _148
REMARK   61  A    between atoms: _147  and  _150
REMARK   62  A    between atoms: _150  and  _151
REMARK   63  A    between atoms: _154  and  _156
REMARK   64  A    between atoms: _156  and  _157
REMARK   65  A    between atoms: _156  and  _159
REMARK   66  A    between atoms: _159  and  _160
REMARK   67  A    between atoms: _163  and  _165
REMARK   68  A    between atoms: _165  and  _166
REMARK   69  A    between atoms: _165  and  _168
REMARK   70  A    between atoms: _168  and  _169
REMARK   71  A    between atoms: _174  and  _175
REMARK   72  A    between atoms: _177  and  _179
REMARK   73  A    between atoms: _179  and  _180
REMARK   74  A    between atoms: _182  and  _184
REMARK   75  A    between atoms: _184  and  _185
REMARK   76  A    between atoms: _184  and  _187
REMARK   77  A    between atoms: _187  and  _188
REMARK   78  A    between atoms: _188  and  _189
REMARK   79  A    between atoms: _189  and  _190
REMARK   80  A    between atoms: _190  and  _191
REMARK   81  A    between atoms: _196  and  _197
REMARK   82  A    between atoms: _202  and  _204
REMARK   83  A    between atoms: _204  and  _205
REMARK   84  A    between atoms: _204  and  _207
REMARK   85  A    between atoms: _207  and  _208
REMARK   86  A    between atoms: _211  and  _213
REMARK   87  A    between atoms: _213  and  _214
REMARK   88  A    between atoms: _213  and  _216
REMARK   89  A    between atoms: _216  and  _217
REMARK   90  A    between atoms: _217  and  _218
REMARK   91  A    between atoms: _224  and  _225
REMARK   92  A    between atoms: _230  and  _232
REMARK   93  A    between atoms: _232  and  _233
REMARK   94  A    between atoms: _236  and  _238
REMARK   95  A    between atoms: _238  and  _239
REMARK   96  A    between atoms: _238  and  _241
REMARK   97  A    between atoms: _241  and  _242
REMARK   98  A    between atoms: _244  and  _246
REMARK   99  A    between atoms: _246  and  _247
REMARK  100  A    between atoms: _246  and  _249
REMARK  101  A    between atoms: _249  and  _250
REMARK  102  A    between atoms: _250  and  _251
REMARK  103  A    between atoms: _251  and  _252
REMARK  104  A    between atoms: _252  and  _253
REMARK  105  A    between atoms: _257  and  _259
REMARK  106  A    between atoms: _259  and  _260
REMARK  107  A    between atoms: _259  and  _262
REMARK  108  A    between atoms: _262  and  _263
REMARK  109  A    between atoms: _268  and  _269
REMARK                            x       y       z     vdW  Elec       q    Type
REMARK                         _______ _______ _______ _____ _____    ______ ____
ROOT
ATOM      1  O   HOH     1      32.814   3.124 -28.214  0.00  0.00    +0.000 OA
ENDROOT
TORSDOF 0
REMARK  Name = ../refined-set-2016/3qnd/3qnd_pocket.pdb
REMARK  109 active torsions:
REMARK  status: ('A' for Active; 'I' for Inactive)
REMARK    1  A    between atoms: _1  and  _3
REMARK    2  A    between atoms: _3  and  _4
REMARK    3  A    between atoms: _3  and  _6
REMARK    4  A    between atoms: _9  and  _11
REMARK    5  A    between atoms: _11  and  _12
REMARK    6  A    between atoms: _11  and  _14
REMARK    7  A    between atoms: _14  and  _15
REMARK    8  A    between atoms: _20  and  _21
REMARK    9  A    between atoms: _23  and  _25
REMARK   10  A    between atoms: _25  and  _26
REMARK   11  A    between atoms: _28  and  _30
REMARK   12  A    between atoms: _30  and  _31
REMARK   13  A    between atoms: _30  and  _33
REMARK   14  A    between atoms: _33  and  _34
REMARK   15  A    between atoms: _37  and  _39
REMARK   16  A    between atoms: _39  and  _40
REMARK   17  A    between atoms: _39  and  _42
REMARK   18  A    between atoms: _42  and  _43
REMARK   19  A    between atoms: _47  and  _48
REMARK   20  A    between atoms: _53  and  _55
REMARK   21  A    between atoms: _55  and  _56
REMARK   22  A    between atoms: _59  and  _61
REMARK   23  A    between atoms: _61  and  _62
REMARK   24  A    between atoms: _61  and  _64
REMARK   25  A    between atoms: _67  and  _69
REMARK   26  A    between atoms: _69  and  _70
REMARK   27  A    between atoms: _69  and  _72
REMARK   28  A    between atoms: _72  and  _73
REMARK   29  A    between atoms: _76  and  _78
REMARK   30  A    between atoms: _78  and  _79
REMARK   31  A    between atoms: _78  and  _81
REMARK   32  A    between atoms: _81  and  _82
REMARK   33  A    between atoms: _82  and  _83
REMARK   34  A    between atoms: _83  and  _84
REMARK   35  A    between atoms: _84  and  _85
REMARK   36  A    between atoms: _89  and  _91
REMARK   37  A    between atoms: _91  and  _92
REMARK   38  A    between atoms: _91  and  _94
REMARK   39  A    between atoms: _94  and  _95
REMARK   40  A    between atoms: _100  and  _102
REMARK   41  A    between atoms: _102  and  _103
REMARK   42  A    between atoms: _102  and  _105
REMARK   43  A    between atoms: _105  and  _106
REMARK   44  A    between atoms: _108  and  _110
REMARK   45  A    between atoms: _110  and  _111
REMARK   46  A    between atoms: _110  and  _113
REMARK   47  A    between atoms: _113  and  _114
REMARK   48  A    between atoms: _124  and  _126
REMARK   49  A    between atoms: _126  and  _127
REMARK   50  A    between atoms: _126  and  _129
REMARK   51  A    between atoms: _129  and  _130
REMARK   52  A    between atoms: _132  and  _134
REMARK   53  A    between atoms: _134  and  _135
REMARK   54  A    between atoms: _134  and  _137
REMARK   55  A    between atoms: _137  and  _138
REMARK   56  A    between atoms: _138  and  _139
REMARK   57  A    between atoms: _139  and  _140
REMARK   58  A    between atoms: _140  and  _141
REMARK   59  A    between atoms: _145  and  _147
REMARK   60  A    between atoms: _147  and  _148
REMARK   61  A    between atoms: _147  and  _150
REMARK   62  A    between atoms: _150  and  _151
REMARK   63  A    between atoms: _154  and  _156
REMARK   64  A    between atoms: _156  and  _157
REMARK   65  A    between atoms: _156  and  _159
REMARK   66  A    between atoms: _159  and  _160
REMARK   67  A    between atoms: _163  and  _165
REMARK   68  A    between atoms: _165  and  _166
REMARK   69  A    between atoms: _165  and  _168
REMARK   70  A    between atoms: _168  and  _169
REMARK   71  A    between atoms: _174  and  _175
REMARK   72  A    between atoms: _177  and  _179
REMARK   73  A    between atoms: _179  and  _180
REMARK   74  A    between atoms: _182  and  _184
REMARK   75  A    between atoms: _184  and  _185
REMARK   76  A    between atoms: _184  and  _187
REMARK   77  A    between atoms: _187  and  _188
REMARK   78  A    between atoms: _188  and  _189
REMARK   79  A    between atoms: _189  and  _190
REMARK   80  A    between atoms: _190  and  _191
REMARK   81  A    between atoms: _196  and  _197
REMARK   82  A    between atoms: _202  and  _204
REMARK   83  A    between atoms: _204  and  _205
REMARK   84  A    between atoms: _204  and  _207
REMARK   85  A    between atoms: _207  and  _208
REMARK   86  A    between atoms: _211  and  _213
REMARK   87  A    between atoms: _213  and  _214
REMARK   88  A    between atoms: _213  and  _216
REMARK   89  A    between atoms: _216  and  _217
REMARK   90  A    between atoms: _217  and  _218
REMARK   91  A    between atoms: _224  and  _225
REMARK   92  A    between atoms: _230  and  _232
REMARK   93  A    between atoms: _232  and  _233
REMARK   94  A    between atoms: _236  and  _238
REMARK   95  A    between atoms: _238  and  _239
REMARK   96  A    between atoms: _238  and  _241
REMARK   97  A    between atoms: _241  and  _242
REMARK   98  A    between atoms: _244  and  _246
REMARK   99  A    between atoms: _246  and  _247
REMARK  100  A    between atoms: _246  and  _249
REMARK  101  A    between atoms: _249  and  _250
REMARK  102  A    between atoms: _250  and  _251
REMARK  103  A    between atoms: _251  and  _252
REMARK  104  A    between atoms: _252  and  _253
REMARK  105  A    between atoms: _257  and  _259
REMARK  106  A    between atoms: _259  and  _260
REMARK  107  A    between atoms: _259  and  _262
REMARK  108  A    between atoms: _262  and  _263
REMARK  109  A    between atoms: _268  and  _269
REMARK                            x       y       z     vdW  Elec       q    Type
REMARK                         _______ _______ _______ _____ _____    ______ ____
ROOT
ATOM      1  O   HOH     1      29.121   6.196 -27.880  0.00  0.00    +0.000 OA
ENDROOT
TORSDOF 0
REMARK  Name = ../refined-set-2016/3qnd/3qnd_pocket.pdb
REMARK  109 active torsions:
REMARK  status: ('A' for Active; 'I' for Inactive)
REMARK    1  A    between atoms: _1  and  _3
REMARK    2  A    between atoms: _3  and  _4
REMARK    3  A    between atoms: _3  and  _6
REMARK    4  A    between atoms: _9  and  _11
REMARK    5  A    between atoms: _11  and  _12
REMARK    6  A    between atoms: _11  and  _14
REMARK    7  A    between atoms: _14  and  _15
REMARK    8  A    between atoms: _20  and  _21
REMARK    9  A    between atoms: _23  and  _25
REMARK   10  A    between atoms: _25  and  _26
REMARK   11  A    between atoms: _28  and  _30
REMARK   12  A    between atoms: _30  and  _31
REMARK   13  A    between atoms: _30  and  _33
REMARK   14  A    between atoms: _33  and  _34
REMARK   15  A    between atoms: _37  and  _39
REMARK   16  A    between atoms: _39  and  _40
REMARK   17  A    between atoms: _39  and  _42
REMARK   18  A    between atoms: _42  and  _43
REMARK   19  A    between atoms: _47  and  _48
REMARK   20  A    between atoms: _53  and  _55
REMARK   21  A    between atoms: _55  and  _56
REMARK   22  A    between atoms: _59  and  _61
REMARK   23  A    between atoms: _61  and  _62
REMARK   24  A    between atoms: _61  and  _64
REMARK   25  A    between atoms: _67  and  _69
REMARK   26  A    between atoms: _69  and  _70
REMARK   27  A    between atoms: _69  and  _72
REMARK   28  A    between atoms: _72  and  _73
REMARK   29  A    between atoms: _76  and  _78
REMARK   30  A    between atoms: _78  and  _79
REMARK   31  A    between atoms: _78  and  _81
REMARK   32  A    between atoms: _81  and  _82
REMARK   33  A    between atoms: _82  and  _83
REMARK   34  A    between atoms: _83  and  _84
REMARK   35  A    between atoms: _84  and  _85
REMARK   36  A    between atoms: _89  and  _91
REMARK   37  A    between atoms: _91  and  _92
REMARK   38  A    between atoms: _91  and  _94
REMARK   39  A    between atoms: _94  and  _95
REMARK   40  A    between atoms: _100  and  _102
REMARK   41  A    between atoms: _102  and  _103
REMARK   42  A    between atoms: _102  and  _105
REMARK   43  A    between atoms: _105  and  _106
REMARK   44  A    between atoms: _108  and  _110
REMARK   45  A    between atoms: _110  and  _111
REMARK   46  A    between atoms: _110  and  _113
REMARK   47  A    between atoms: _113  and  _114
REMARK   48  A    between atoms: _124  and  _126
REMARK   49  A    between atoms: _126  and  _127
REMARK   50  A    between atoms: _126  and  _129
REMARK   51  A    between atoms: _129  and  _130
REMARK   52  A    between atoms: _132  and  _134
REMARK   53  A    between atoms: _134  and  _135
REMARK   54  A    between atoms: _134  and  _137
REMARK   55  A    between atoms: _137  and  _138
REMARK   56  A    between atoms: _138  and  _139
REMARK   57  A    between atoms: _139  and  _140
REMARK   58  A    between atoms: _140  and  _141
REMARK   59  A    between atoms: _145  and  _147
REMARK   60  A    between atoms: _147  and  _148
REMARK   61  A    between atoms: _147  and  _150
REMARK   62  A    between atoms: _150  and  _151
REMARK   63  A    between atoms: _154  and  _156
REMARK   64  A    between atoms: _156  and  _157
REMARK   65  A    between atoms: _156  and  _159
REMARK   66  A    between atoms: _159  and  _160
REMARK   67  A    between atoms: _163  and  _165
REMARK   68  A    between atoms: _165  and  _166
REMARK   69  A    between atoms: _165  and  _168
REMARK   70  A    between atoms: _168  and  _169
REMARK   71  A    between atoms: _174  and  _175
REMARK   72  A    between atoms: _177  and  _179
REMARK   73  A    between atoms: _179  and  _180
REMARK   74  A    between atoms: _182  and  _184
REMARK   75  A    between atoms: _184  and  _185
REMARK   76  A    between atoms: _184  and  _187
REMARK   77  A    between atoms: _187  and  _188
REMARK   78  A    between atoms: _188  and  _189
REMARK   79  A    between atoms: _189  and  _190
REMARK   80  A    between atoms: _190  and  _191
REMARK   81  A    between atoms: _196  and  _197
REMARK   82  A    between atoms: _202  and  _204
REMARK   83  A    between atoms: _204  and  _205
REMARK   84  A    between atoms: _204  and  _207
REMARK   85  A    between atoms: _207  and  _208
REMARK   86  A    between atoms: _211  and  _213
REMARK   87  A    between atoms: _213  and  _214
REMARK   88  A    between atoms: _213  and  _216
REMARK   89  A    between atoms: _216  and  _217
REMARK   90  A    between atoms: _217  and  _218
REMARK   91  A    between atoms: _224  and  _225
REMARK   92  A    between atoms: _230  and  _232
REMARK   93  A    between atoms: _232  and  _233
REMARK   94  A    between atoms: _236  and  _238
REMARK   95  A    between atoms: _238  and  _239
REMARK   96  A    between atoms: _238  and  _241
REMARK   97  A    between atoms: _241  and  _242
REMARK   98  A    between atoms: _244  and  _246
REMARK   99  A    between atoms: _246  and  _247
REMARK  100  A    between atoms: _246  and  _249
REMARK  101  A    between atoms: _249  and  _250
REMARK  102  A    between atoms: _250  and  _251
REMARK  103  A    between atoms: _251  and  _252
REMARK  104  A    between atoms: _252  and  _253
REMARK  105  A    between atoms: _257  and  _259
REMARK  106  A    between atoms: _259  and  _260
REMARK  107  A    between atoms: _259  and  _262
REMARK  108  A    between atoms: _262  and  _263
REMARK  109  A    between atoms: _268  and  _269
REMARK                            x       y       z     vdW  Elec       q    Type
REMARK                         _______ _______ _______ _____ _____    ______ ____
ROOT
ATOM      1  O   HOH     1      24.527  -1.381 -20.250  0.00  0.00    +0.000 OA
ENDROOT
TORSDOF 0
REMARK  Name = ../refined-set-2016/3qnd/3qnd_pocket.pdb
REMARK  109 active torsions:
REMARK  status: ('A' for Active; 'I' for Inactive)
REMARK    1  A    between atoms: _1  and  _3
REMARK    2  A    between atoms: _3  and  _4
REMARK    3  A    between atoms: _3  and  _6
REMARK    4  A    between atoms: _9  and  _11
REMARK    5  A    between atoms: _11  and  _12
REMARK    6  A    between atoms: _11  and  _14
REMARK    7  A    between atoms: _14  and  _15
REMARK    8  A    between atoms: _20  and  _21
REMARK    9  A    between atoms: _23  and  _25
REMARK   10  A    between atoms: _25  and  _26
REMARK   11  A    between atoms: _28  and  _30
REMARK   12  A    between atoms: _30  and  _31
REMARK   13  A    between atoms: _30  and  _33
REMARK   14  A    between atoms: _33  and  _34
REMARK   15  A    between atoms: _37  and  _39
REMARK   16  A    between atoms: _39  and  _40
REMARK   17  A    between atoms: _39  and  _42
REMARK   18  A    between atoms: _42  and  _43
REMARK   19  A    between atoms: _47  and  _48
REMARK   20  A    between atoms: _53  and  _55
REMARK   21  A    between atoms: _55  and  _56
REMARK   22  A    between atoms: _59  and  _61
REMARK   23  A    between atoms: _61  and  _62
REMARK   24  A    between atoms: _61  and  _64
REMARK   25  A    between atoms: _67  and  _69
REMARK   26  A    between atoms: _69  and  _70
REMARK   27  A    between atoms: _69  and  _72
REMARK   28  A    between atoms: _72  and  _73
REMARK   29  A    between atoms: _76  and  _78
REMARK   30  A    between atoms: _78  and  _79
REMARK   31  A    between atoms: _78  and  _81
REMARK   32  A    between atoms: _81  and  _82
REMARK   33  A    between atoms: _82  and  _83
REMARK   34  A    between atoms: _83  and  _84
REMARK   35  A    between atoms: _84  and  _85
REMARK   36  A    between atoms: _89  and  _91
REMARK   37  A    between atoms: _91  and  _92
REMARK   38  A    between atoms: _91  and  _94
REMARK   39  A    between atoms: _94  and  _95
REMARK   40  A    between atoms: _100  and  _102
REMARK   41  A    between atoms: _102  and  _103
REMARK   42  A    between atoms: _102  and  _105
REMARK   43  A    between atoms: _105  and  _106
REMARK   44  A    between atoms: _108  and  _110
REMARK   45  A    between atoms: _110  and  _111
REMARK   46  A    between atoms: _110  and  _113
REMARK   47  A    between atoms: _113  and  _114
REMARK   48  A    between atoms: _124  and  _126
REMARK   49  A    between atoms: _126  and  _127
REMARK   50  A    between atoms: _126  and  _129
REMARK   51  A    between atoms: _129  and  _130
REMARK   52  A    between atoms: _132  and  _134
REMARK   53  A    between atoms: _134  and  _135
REMARK   54  A    between atoms: _134  and  _137
REMARK   55  A    between atoms: _137  and  _138
REMARK   56  A    between atoms: _138  and  _139
REMARK   57  A    between atoms: _139  and  _140
REMARK   58  A    between atoms: _140  and  _141
REMARK   59  A    between atoms: _145  and  _147
REMARK   60  A    between atoms: _147  and  _148
REMARK   61  A    between atoms: _147  and  _150
REMARK   62  A    between atoms: _150  and  _151
REMARK   63  A    between atoms: _154  and  _156
REMARK   64  A    between atoms: _156  and  _157
REMARK   65  A    between atoms: _156  and  _159
REMARK   66  A    between atoms: _159  and  _160
REMARK   67  A    between atoms: _163  and  _165
REMARK   68  A    between atoms: _165  and  _166
REMARK   69  A    between atoms: _165  and  _168
REMARK   70  A    between atoms: _168  and  _169
REMARK   71  A    between atoms: _174  and  _175
REMARK   72  A    between atoms: _177  and  _179
REMARK   73  A    between atoms: _179  and  _180
REMARK   74  A    between atoms: _182  and  _184
REMARK   75  A    between atoms: _184  and  _185
REMARK   76  A    between atoms: _184  and  _187
REMARK   77  A    between atoms: _187  and  _188
REMARK   78  A    between atoms: _188  and  _189
REMARK   79  A    between atoms: _189  and  _190
REMARK   80  A    between atoms: _190  and  _191
REMARK   81  A    between atoms: _196  and  _197
REMARK   82  A    between atoms: _202  and  _204
REMARK   83  A    between atoms: _204  and  _205
REMARK   84  A    between atoms: _204  and  _207
REMARK   85  A    between atoms: _207  and  _208
REMARK   86  A    between atoms: _211  and  _213
REMARK   87  A    between atoms: _213  and  _214
REMARK   88  A    between atoms: _213  and  _216
REMARK   89  A    between atoms: _216  and  _217
REMARK   90  A    between atoms: _217  and  _218
REMARK   91  A    between atoms: _224  and  _225
REMARK   92  A    between atoms: _230  and  _232
REMARK   93  A    between atoms: _232  and  _233
REMARK   94  A    between atoms: _236  and  _238
REMARK   95  A    between atoms: _238  and  _239
REMARK   96  A    between atoms: _238  and  _241
REMARK   97  A    between atoms: _241  and  _242
REMARK   98  A    between atoms: _244  and  _246
REMARK   99  A    between atoms: _246  and  _247
REMARK  100  A    between atoms: _246  and  _249
REMARK  101  A    between atoms: _249  and  _250
REMARK  102  A    between atoms: _250  and  _251
REMARK  103  A    between atoms: _251  and  _252
REMARK  104  A    between atoms: _252  and  _253
REMARK  105  A    between atoms: _257  and  _259
REMARK  106  A    between atoms: _259  and  _260
REMARK  107  A    between atoms: _259  and  _262
REMARK  108  A    between atoms: _262  and  _263
REMARK  109  A    between atoms: _268  and  _269
REMARK                            x       y       z     vdW  Elec       q    Type
REMARK                         _______ _______ _______ _____ _____    ______ ____
ROOT
ATOM      1  O   HOH     1      22.962   6.673 -19.444  0.00  0.00    +0.000 OA
ENDROOT
TORSDOF 0
REMARK  Name = ../refined-set-2016/3qnd/3qnd_pocket.pdb
REMARK  109 active torsions:
REMARK  status: ('A' for Active; 'I' for Inactive)
REMARK    1  A    between atoms: _1  and  _3
REMARK    2  A    between atoms: _3  and  _4
REMARK    3  A    between atoms: _3  and  _6
REMARK    4  A    between atoms: _9  and  _11
REMARK    5  A    between atoms: _11  and  _12
REMARK    6  A    between atoms: _11  and  _14
REMARK    7  A    between atoms: _14  and  _15
REMARK    8  A    between atoms: _20  and  _21
REMARK    9  A    between atoms: _23  and  _25
REMARK   10  A    between atoms: _25  and  _26
REMARK   11  A    between atoms: _28  and  _30
REMARK   12  A    between atoms: _30  and  _31
REMARK   13  A    between atoms: _30  and  _33
REMARK   14  A    between atoms: _33  and  _34
REMARK   15  A    between atoms: _37  and  _39
REMARK   16  A    between atoms: _39  and  _40
REMARK   17  A    between atoms: _39  and  _42
REMARK   18  A    between atoms: _42  and  _43
REMARK   19  A    between atoms: _47  and  _48
REMARK   20  A    between atoms: _53  and  _55
REMARK   21  A    between atoms: _55  and  _56
REMARK   22  A    between atoms: _59  and  _61
REMARK   23  A    between atoms: _61  and  _62
REMARK   24  A    between atoms: _61  and  _64
REMARK   25  A    between atoms: _67  and  _69
REMARK   26  A    between atoms: _69  and  _70
REMARK   27  A    between atoms: _69  and  _72
REMARK   28  A    between atoms: _72  and  _73
REMARK   29  A    between atoms: _76  and  _78
REMARK   30  A    between atoms: _78  and  _79
REMARK   31  A    between atoms: _78  and  _81
REMARK   32  A    between atoms: _81  and  _82
REMARK   33  A    between atoms: _82  and  _83
REMARK   34  A    between atoms: _83  and  _84
REMARK   35  A    between atoms: _84  and  _85
REMARK   36  A    between atoms: _89  and  _91
REMARK   37  A    between atoms: _91  and  _92
REMARK   38  A    between atoms: _91  and  _94
REMARK   39  A    between atoms: _94  and  _95
REMARK   40  A    between atoms: _100  and  _102
REMARK   41  A    between atoms: _102  and  _103
REMARK   42  A    between atoms: _102  and  _105
REMARK   43  A    between atoms: _105  and  _106
REMARK   44  A    between atoms: _108  and  _110
REMARK   45  A    between atoms: _110  and  _111
REMARK   46  A    between atoms: _110  and  _113
REMARK   47  A    between atoms: _113  and  _114
REMARK   48  A    between atoms: _124  and  _126
REMARK   49  A    between atoms: _126  and  _127
REMARK   50  A    between atoms: _126  and  _129
REMARK   51  A    between atoms: _129  and  _130
REMARK   52  A    between atoms: _132  and  _134
REMARK   53  A    between atoms: _134  and  _135
REMARK   54  A    between atoms: _134  and  _137
REMARK   55  A    between atoms: _137  and  _138
REMARK   56  A    between atoms: _138  and  _139
REMARK   57  A    between atoms: _139  and  _140
REMARK   58  A    between atoms: _140  and  _141
REMARK   59  A    between atoms: _145  and  _147
REMARK   60  A    between atoms: _147  and  _148
REMARK   61  A    between atoms: _147  and  _150
REMARK   62  A    between atoms: _150  and  _151
REMARK   63  A    between atoms: _154  and  _156
REMARK   64  A    between atoms: _156  and  _157
REMARK   65  A    between atoms: _156  and  _159
REMARK   66  A    between atoms: _159  and  _160
REMARK   67  A    between atoms: _163  and  _165
REMARK   68  A    between atoms: _165  and  _166
REMARK   69  A    between atoms: _165  and  _168
REMARK   70  A    between atoms: _168  and  _169
REMARK   71  A    between atoms: _174  and  _175
REMARK   72  A    between atoms: _177  and  _179
REMARK   73  A    between atoms: _179  and  _180
REMARK   74  A    between atoms: _182  and  _184
REMARK   75  A    between atoms: _184  and  _185
REMARK   76  A    between atoms: _184  and  _187
REMARK   77  A    between atoms: _187  and  _188
REMARK   78  A    between atoms: _188  and  _189
REMARK   79  A    between atoms: _189  and  _190
REMARK   80  A    between atoms: _190  and  _191
REMARK   81  A    between atoms: _196  and  _197
REMARK   82  A    between atoms: _202  and  _204
REMARK   83  A    between atoms: _204  and  _205
REMARK   84  A    between atoms: _204  and  _207
REMARK   85  A    between atoms: _207  and  _208
REMARK   86  A    between atoms: _211  and  _213
REMARK   87  A    between atoms: _213  and  _214
REMARK   88  A    between atoms: _213  and  _216
REMARK   89  A    between atoms: _216  and  _217
REMARK   90  A    between atoms: _217  and  _218
REMARK   91  A    between atoms: _224  and  _225
REMARK   92  A    between atoms: _230  and  _232
REMARK   93  A    between atoms: _232  and  _233
REMARK   94  A    between atoms: _236  and  _238
REMARK   95  A    between atoms: _238  and  _239
REMARK   96  A    between atoms: _238  and  _241
REMARK   97  A    between atoms: _241  and  _242
REMARK   98  A    between atoms: _244  and  _246
REMARK   99  A    between atoms: _246  and  _247
REMARK  100  A    between atoms: _246  and  _249
REMARK  101  A    between atoms: _249  and  _250
REMARK  102  A    between atoms: _250  and  _251
REMARK  103  A    between atoms: _251  and  _252
REMARK  104  A    between atoms: _252  and  _253
REMARK  105  A    between atoms: _257  and  _259
REMARK  106  A    between atoms: _259  and  _260
REMARK  107  A    between atoms: _259  and  _262
REMARK  108  A    between atoms: _262  and  _263
REMARK  109  A    between atoms: _268  and  _269
REMARK                            x       y       z     vdW  Elec       q    Type
REMARK                         _______ _______ _______ _____ _____    ______ ____
ROOT
ATOM      1  O   HOH     1      33.570   1.190 -26.474  0.00  0.00    +0.000 OA
ENDROOT
TORSDOF 0
