REMARK  Name = ../refined-set-2016/3v78/3v78_pocket.pdb
REMARK  217 active torsions:
REMARK  status: ('A' for Active; 'I' for Inactive)
REMARK    1  A    between atoms: _1  and  _3
REMARK    2  A    between atoms: _3  and  _4
REMARK    3  A    between atoms: _7  and  _9
REMARK    4  A    between atoms: _9  and  _10
REMARK    5  A    between atoms: _13  and  _15
REMARK    6  A    between atoms: _15  and  _16
REMARK    7  A    between atoms: _15  and  _18
REMARK    8  A    between atoms: _18  and  _19
REMARK    9  A    between atoms: _24  and  _26
REMARK   10  A    between atoms: _26  and  _27
REMARK   11  A    between atoms: _30  and  _32
REMARK   12  A    between atoms: _32  and  _33
REMARK   13  A    between atoms: _32  and  _35
REMARK   14  A    between atoms: _35  and  _36
REMARK   15  A    between atoms: _38  and  _40
REMARK   16  A    between atoms: _40  and  _41
REMARK   17  A    between atoms: _44  and  _46
REMARK   18  A    between atoms: _46  and  _47
REMARK   19  A    between atoms: _46  and  _49
REMARK   20  A    between atoms: _49  and  _50
REMARK   21  A    between atoms: _53  and  _55
REMARK   22  A    between atoms: _55  and  _56
REMARK   23  A    between atoms: _55  and  _58
REMARK   24  A    between atoms: _58  and  _59
REMARK   25  A    between atoms: _62  and  _64
REMARK   26  A    between atoms: _64  and  _65
REMARK   27  A    between atoms: _64  and  _67
REMARK   28  A    between atoms: _67  and  _68
REMARK   29  A    between atoms: _71  and  _73
REMARK   30  A    between atoms: _73  and  _74
REMARK   31  A    between atoms: _77  and  _79
REMARK   32  A    between atoms: _79  and  _80
REMARK   33  A    between atoms: _79  and  _82
REMARK   34  A    between atoms: _82  and  _83
REMARK   35  A    between atoms: _83  and  _84
REMARK   36  A    between atoms: _89  and  _91
REMARK   37  A    between atoms: _91  and  _92
REMARK   38  A    between atoms: _91  and  _94
REMARK   39  A    between atoms: _94  and  _95
REMARK   40  A    between atoms: _105  and  _107
REMARK   41  A    between atoms: _107  and  _108
REMARK   42  A    between atoms: _107  and  _110
REMARK   43  A    between atoms: _110  and  _111
REMARK   44  A    between atoms: _114  and  _116
REMARK   45  A    between atoms: _116  and  _117
REMARK   46  A    between atoms: _120  and  _122
REMARK   47  A    between atoms: _122  and  _123
REMARK   48  A    between atoms: _122  and  _125
REMARK   49  A    between atoms: _125  and  _126
REMARK   50  A    between atoms: _129  and  _131
REMARK   51  A    between atoms: _131  and  _132
REMARK   52  A    between atoms: _131  and  _134
REMARK   53  A    between atoms: _134  and  _135
REMARK   54  A    between atoms: _138  and  _140
REMARK   55  A    between atoms: _140  and  _141
REMARK   56  A    between atoms: _140  and  _143
REMARK   57  A    between atoms: _143  and  _144
REMARK   58  A    between atoms: _147  and  _149
REMARK   59  A    between atoms: _149  and  _150
REMARK   60  A    between atoms: _149  and  _152
REMARK   61  A    between atoms: _155  and  _157
REMARK   62  A    between atoms: _157  and  _158
REMARK   63  A    between atoms: _157  and  _160
REMARK   64  A    between atoms: _160  and  _161
REMARK   65  A    between atoms: _166  and  _167
REMARK   66  A    between atoms: _169  and  _171
REMARK   67  A    between atoms: _171  and  _172
REMARK   68  A    between atoms: _171  and  _174
REMARK   69  A    between atoms: _174  and  _175
REMARK   70  A    between atoms: _178  and  _180
REMARK   71  A    between atoms: _180  and  _181
REMARK   72  A    between atoms: _180  and  _183
REMARK   73  A    between atoms: _183  and  _184
REMARK   74  A    between atoms: _189  and  _190
REMARK   75  A    between atoms: _192  and  _194
REMARK   76  A    between atoms: _194  and  _195
REMARK   77  A    between atoms: _194  and  _197
REMARK   78  A    between atoms: _197  and  _198
REMARK   79  A    between atoms: _198  and  _199
REMARK   80  A    between atoms: _199  and  _200
REMARK   81  A    between atoms: _209  and  _211
REMARK   82  A    between atoms: _211  and  _212
REMARK   83  A    between atoms: _211  and  _214
REMARK   84  A    between atoms: _214  and  _215
REMARK   85  A    between atoms: _218  and  _220
REMARK   86  A    between atoms: _220  and  _221
REMARK   87  A    between atoms: _220  and  _223
REMARK   88  A    between atoms: _223  and  _224
REMARK   89  A    between atoms: _227  and  _229
REMARK   90  A    between atoms: _229  and  _230
REMARK   91  A    between atoms: _229  and  _232
REMARK   92  A    between atoms: _232  and  _233
REMARK   93  A    between atoms: _238  and  _240
REMARK   94  A    between atoms: _240  and  _241
REMARK   95  A    between atoms: _240  and  _243
REMARK   96  A    between atoms: _243  and  _244
REMARK   97  A    between atoms: _244  and  _245
REMARK   98  A    between atoms: _248  and  _250
REMARK   99  A    between atoms: _250  and  _251
REMARK  100  A    between atoms: _250  and  _253
REMARK  101  A    between atoms: _253  and  _254
REMARK  102  A    between atoms: _257  and  _259
REMARK  103  A    between atoms: _259  and  _260
REMARK  104  A    between atoms: _259  and  _262
REMARK  105  A    between atoms: _262  and  _263
REMARK  106  A    between atoms: _268  and  _269
REMARK  107  A    between atoms: _271  and  _273
REMARK  108  A    between atoms: _273  and  _274
REMARK  109  A    between atoms: _273  and  _276
REMARK  110  A    between atoms: _276  and  _277
REMARK  111  A    between atoms: _277  and  _278
REMARK  112  A    between atoms: _280  and  _282
REMARK  113  A    between atoms: _282  and  _283
REMARK  114  A    between atoms: _286  and  _288
REMARK  115  A    between atoms: _288  and  _289
REMARK  116  A    between atoms: _288  and  _291
REMARK  117  A    between atoms: _291  and  _292
REMARK  118  A    between atoms: _295  and  _297
REMARK  119  A    between atoms: _297  and  _298
REMARK  120  A    between atoms: _301  and  _303
REMARK  121  A    between atoms: _303  and  _304
REMARK  122  A    between atoms: _303  and  _306
REMARK  123  A    between atoms: _306  and  _307
REMARK  124  A    between atoms: _307  and  _308
REMARK  125  A    between atoms: _308  and  _309
REMARK  126  A    between atoms: _318  and  _320
REMARK  127  A    between atoms: _320  and  _321
REMARK  128  A    between atoms: _320  and  _323
REMARK  129  A    between atoms: _323  and  _324
REMARK  130  A    between atoms: _327  and  _329
REMARK  131  A    between atoms: _329  and  _330
REMARK  132  A    between atoms: _329  and  _332
REMARK  133  A    between atoms: _332  and  _333
REMARK  134  A    between atoms: _344  and  _345
REMARK  135  A    between atoms: _350  and  _352
REMARK  136  A    between atoms: _352  and  _353
REMARK  137  A    between atoms: _355  and  _357
REMARK  138  A    between atoms: _357  and  _358
REMARK  139  A    between atoms: _357  and  _360
REMARK  140  A    between atoms: _360  and  _361
REMARK  141  A    between atoms: _364  and  _366
REMARK  142  A    between atoms: _366  and  _367
REMARK  143  A    between atoms: _366  and  _369
REMARK  144  A    between atoms: _372  and  _374
REMARK  145  A    between atoms: _374  and  _375
REMARK  146  A    between atoms: _374  and  _377
REMARK  147  A    between atoms: _377  and  _378
REMARK  148  A    between atoms: _381  and  _383
REMARK  149  A    between atoms: _383  and  _384
REMARK  150  A    between atoms: _383  and  _386
REMARK  151  A    between atoms: _389  and  _391
REMARK  152  A    between atoms: _391  and  _392
REMARK  153  A    between atoms: _391  and  _394
REMARK  154  A    between atoms: _394  and  _395
REMARK  155  A    between atoms: _401  and  _403
REMARK  156  A    between atoms: _403  and  _404
REMARK  157  A    between atoms: _403  and  _406
REMARK  158  A    between atoms: _406  and  _407
REMARK  159  A    between atoms: _413  and  _415
REMARK  160  A    between atoms: _415  and  _416
REMARK  161  A    between atoms: _415  and  _418
REMARK  162  A    between atoms: _418  and  _419
REMARK  163  A    between atoms: _422  and  _424
REMARK  164  A    between atoms: _424  and  _425
REMARK  165  A    between atoms: _427  and  _429
REMARK  166  A    between atoms: _429  and  _430
REMARK  167  A    between atoms: _433  and  _435
REMARK  168  A    between atoms: _435  and  _436
REMARK  169  A    between atoms: _435  and  _438
REMARK  170  A    between atoms: _438  and  _439
REMARK  171  A    between atoms: _442  and  _444
REMARK  172  A    between atoms: _444  and  _445
REMARK  173  A    between atoms: _444  and  _447
REMARK  174  A    between atoms: _447  and  _448
REMARK  175  A    between atoms: _451  and  _453
REMARK  176  A    between atoms: _453  and  _454
REMARK  177  A    between atoms: _453  and  _456
REMARK  178  A    between atoms: _456  and  _457
REMARK  179  A    between atoms: _462  and  _464
REMARK  180  A    between atoms: _464  and  _465
REMARK  181  A    between atoms: _468  and  _470
REMARK  182  A    between atoms: _470  and  _471
REMARK  183  A    between atoms: _470  and  _473
REMARK  184  A    between atoms: _473  and  _474
REMARK  185  A    between atoms: _477  and  _479
REMARK  186  A    between atoms: _479  and  _480
REMARK  187  A    between atoms: _479  and  _482
REMARK  188  A    between atoms: _482  and  _483
REMARK  189  A    between atoms: _486  and  _488
REMARK  190  A    between atoms: _488  and  _489
REMARK  191  A    between atoms: _488  and  _491
REMARK  192  A    between atoms: _491  and  _492
REMARK  193  A    between atoms: _492  and  _493
REMARK  194  A    between atoms: _495  and  _497
REMARK  195  A    between atoms: _497  and  _498
REMARK  196  A    between atoms: _501  and  _503
REMARK  197  A    between atoms: _503  and  _504
REMARK  198  A    between atoms: _503  and  _506
REMARK  199  A    between atoms: _506  and  _507
REMARK  200  A    between atoms: _512  and  _514
REMARK  201  A    between atoms: _514  and  _515
REMARK  202  A    between atoms: _514  and  _517
REMARK  203  A    between atoms: _517  and  _518
REMARK  204  A    between atoms: _521  and  _523
REMARK  205  A    between atoms: _523  and  _524
REMARK  206  A    between atoms: _526  and  _528
REMARK  207  A    between atoms: _528  and  _529
REMARK  208  A    between atoms: _528  and  _531
REMARK  209  A    between atoms: _531  and  _532
REMARK  210  A    between atoms: _535  and  _537
REMARK  211  A    between atoms: _537  and  _538
REMARK  212  A    between atoms: _537  and  _540
REMARK  213  A    between atoms: _540  and  _541
REMARK  214  A    between atoms: _546  and  _548
REMARK  215  A    between atoms: _548  and  _549
REMARK  216  A    between atoms: _548  and  _551
REMARK  217  A    between atoms: _551  and  _552
REMARK                            x       y       z     vdW  Elec       q    Type
REMARK                         _______ _______ _______ _____ _____    ______ ____
ROOT
ATOM      1  C   ASP A   7     -34.271 -21.048  -3.181  0.00  0.00    +0.241 C 
ATOM      2  N   LEU A   8     -34.370 -19.731  -3.041  0.00  0.00    -0.297 N 
ATOM      3  H   LEU A   8     -35.182 -19.322  -2.536  0.00  0.00    +0.150 HD
ATOM      4  O   ASP A   7     -33.311 -21.599  -3.741  0.00  0.00    -0.273 OA
ENDROOT
BRANCH   2   5
ATOM      5  CA  LEU A   8     -33.348 -18.862  -3.591  0.00  0.00    +0.149 C 
BRANCH   5   6
ATOM      6  C   LEU A   8     -32.071 -19.079  -2.803  0.00  0.00    +0.241 C 
ATOM      7  N   LEU A   9     -32.229 -19.270  -1.492  0.00  0.00    -0.297 N 
ATOM      8  H   LEU A   9     -33.189 -19.221  -1.095  0.00  0.00    +0.150 HD
ATOM      9  O   LEU A   8     -30.978 -19.084  -3.374  0.00  0.00    -0.273 OA
BRANCH   7  10
ATOM     10  CA  LEU A   9     -31.119 -19.544  -0.595  0.00  0.00    +0.149 C 
BRANCH  10  11
ATOM     11  C   LEU A   9     -30.376 -20.845  -0.971  0.00  0.00    +0.241 C 
ATOM     12  O   LEU A   9     -29.145 -20.909  -0.908  0.00  0.00    -0.273 OA
ATOM     13  N   ALA A  10     -31.133 -21.874  -1.344  0.00  0.00    -0.297 N 
ATOM     14  H   ALA A  10     -32.167 -21.795  -1.261  0.00  0.00    +0.150 HD
BRANCH  13  15
ATOM     15  CA  ALA A  10     -30.556 -23.112  -1.867  0.00  0.00    +0.149 C 
ATOM     16  CB  ALA A  10     -31.660 -24.169  -2.101  0.00  0.00    +0.031 C 
BRANCH  15  17
ATOM     17  C   ALA A  10     -29.792 -22.839  -3.167  0.00  0.00    +0.241 C 
ATOM     18  O   ALA A  10     -28.699 -23.356  -3.378  0.00  0.00    -0.273 OA
ATOM     19  N   GLN A  11     -30.365 -22.014  -4.036  0.00  0.00    -0.297 N 
ATOM     20  H   GLN A  11     -31.311 -21.628  -3.840  0.00  0.00    +0.150 HD
BRANCH  19  21
ATOM     21  CA  GLN A  11     -29.670 -21.649  -5.264  0.00  0.00    +0.149 C 
BRANCH  21  22
ATOM     22  C   GLN A  11     -28.325 -20.966  -4.962  0.00  0.00    +0.241 C 
ATOM     23  N   TRP A  12     -28.296 -20.071  -3.974  0.00  0.00    -0.298 N 
ATOM     24  H   TRP A  12     -29.174 -19.841  -3.466  0.00  0.00    +0.150 HD
ATOM     25  O   GLN A  11     -27.327 -21.252  -5.613  0.00  0.00    -0.273 OA
BRANCH  23  26
ATOM     26  CA  TRP A  12     -27.044 -19.404  -3.591  0.00  0.00    +0.141 C 
BRANCH  26  27
ATOM     27  C   TRP A  12     -26.051 -20.436  -3.080  0.00  0.00    +0.227 C 
ATOM     28  O   TRP A  12     -24.870 -20.396  -3.408  0.00  0.00    -0.286 OA
ENDBRANCH  26  27
BRANCH  26  29
ATOM     29  CB  TRP A  12     -27.276 -18.322  -2.523  0.00  0.00    +0.056 C 
BRANCH  29  30
ATOM     30  CG  TRP A  12     -27.702 -16.981  -3.065  0.00  0.00    -0.002 A 
ATOM     31  CD2 TRP A  12     -27.211 -15.687  -2.663  0.00  0.00    +0.013 A 
ATOM     32  CE3 TRP A  12     -26.254 -15.251  -1.731  0.00  0.00    +0.001 A 
ATOM     33  CZ3 TRP A  12     -26.024 -13.883  -1.605  0.00  0.00    +0.000 A 
ATOM     34  CH2 TRP A  12     -26.725 -12.949  -2.393  0.00  0.00    +0.001 A 
ATOM     35  CZ2 TRP A  12     -27.659 -13.344  -3.307  0.00  0.00    +0.017 A 
ATOM     36  CE2 TRP A  12     -27.897 -14.723  -3.434  0.00  0.00    +0.056 A 
ATOM     37  NE1 TRP A  12     -28.762 -15.400  -4.254  0.00  0.00    -0.352 N 
ATOM     38  HE1 TRP A  12     -29.405 -14.963  -4.945  0.00  0.00    +0.166 HD
ATOM     39  CD1 TRP A  12     -28.645 -16.749  -4.018  0.00  0.00    +0.068 A 
ENDBRANCH  29  30
ENDBRANCH  26  29
ENDBRANCH  23  26
ENDBRANCH  21  22
BRANCH  21  40
ATOM     40  CB  GLN A  11     -30.561 -20.772  -6.144  0.00  0.00    +0.039 C 
BRANCH  40  41
ATOM     41  CG  GLN A  11     -29.900 -20.250  -7.407  0.00  0.00    +0.087 C 
BRANCH  41  42
ATOM     42  CD  GLN A  11     -30.000 -21.226  -8.562  0.00  0.00    +0.219 C 
ATOM     43  OE1 GLN A  11     -30.002 -22.444  -8.365  0.00  0.00    -0.275 OA
ATOM     44  NE2 GLN A  11     -30.092 -20.696  -9.781  0.00  0.00    -0.329 N 
ATOM     45 HE21 GLN A  11     -30.086 -19.663  -9.901  0.00  0.00    +0.145 HD
ATOM     46 HE22 GLN A  11     -30.169 -21.315 -10.613  0.00  0.00    +0.145 HD
ENDBRANCH  41  42
ENDBRANCH  40  41
ENDBRANCH  21  40
ENDBRANCH  19  21
ENDBRANCH  15  17
ENDBRANCH  13  15
ENDBRANCH  10  11
BRANCH  10  47
ATOM     47  CB  LEU A   9     -31.630 -19.617   0.841  0.00  0.00    +0.029 C 
BRANCH  47  48
ATOM     48  CG  LEU A   9     -30.794 -18.900   1.899  0.00  0.00    +0.002 C 
ATOM     49  CD2 LEU A   9     -31.683 -17.999   2.770  0.00  0.00    +0.000 C 
ATOM     50  CD1 LEU A   9     -29.688 -18.106   1.243  0.00  0.00    +0.000 C 
ENDBRANCH  47  48
ENDBRANCH  10  47
ENDBRANCH   7  10
ENDBRANCH   5   6
BRANCH   5  51
ATOM     51  CB  LEU A   8     -33.764 -17.385  -3.557  0.00  0.00    +0.029 C 
BRANCH  51  52
ATOM     52  CG  LEU A   8     -32.741 -16.481  -4.276  0.00  0.00    +0.002 C 
ATOM     53  CD2 LEU A   8     -32.828 -15.000  -3.905  0.00  0.00    +0.000 C 
ATOM     54  CD1 LEU A   8     -32.859 -16.659  -5.774  0.00  0.00    +0.000 C 
ENDBRANCH  51  52
ENDBRANCH   5  51
ENDBRANCH   2   5
BRANCH   1  55
ATOM     55  CA  ASP A   7     -35.413 -21.872  -2.606  0.00  0.00    +0.160 C 
BRANCH  55  58
ATOM     56  C   ALA A   6     -34.929 -21.404  -0.268  0.00  0.00    +0.241 C 
ATOM     57  O   ALA A   6     -33.728 -21.685  -0.426  0.00  0.00    -0.273 OA
ATOM     58  N   ASP A   7     -35.810 -21.449  -1.262  0.00  0.00    -0.297 N 
ATOM     59  H   ASP A   7     -36.798 -21.179  -1.082  0.00  0.00    +0.150 HD
BRANCH  56  60
ATOM     60  CA  ALA A   6     -35.476 -20.945   1.095  0.00  0.00    +0.149 C 
ATOM     61  CB  ALA A   6     -36.237 -22.094   1.797  0.00  0.00    +0.031 C 
BRANCH  60  63
ATOM     62  C   SER A   5     -35.936 -18.676   0.319  0.00  0.00    +0.243 C 
ATOM     63  N   ALA A   6     -36.352 -19.780   0.931  0.00  0.00    -0.297 N 
ATOM     64  H   ALA A   6     -37.323 -19.819   1.303  0.00  0.00    +0.150 HD
ATOM     65  O   SER A   5     -34.775 -18.520  -0.054  0.00  0.00    -0.273 OA
BRANCH  62  66
ATOM     66  CA  SER A   5     -36.990 -17.572   0.103  0.00  0.00    +0.178 C 
BRANCH  66  68
ATOM     67  C   ALA A   4     -38.185 -18.509  -1.794  0.00  0.00    +0.241 C 
ATOM     68  N   SER A   5     -38.195 -18.093  -0.533  0.00  0.00    -0.295 N 
ATOM     69  H   SER A   5     -39.080 -18.140   0.012  0.00  0.00    +0.150 HD
ATOM     70  O   ALA A   4     -37.166 -18.498  -2.475  0.00  0.00    -0.273 OA
BRANCH  67  71
ATOM     71  CA  ALA A   4     -39.524 -19.026  -2.351  0.00  0.00    +0.149 C 
ATOM     72  CB  ALA A   4     -40.404 -17.854  -2.845  0.00  0.00    +0.031 C 
BRANCH  71  75
ATOM     73  C   ASN A   3     -39.767 -20.942  -0.844  0.00  0.00    +0.241 C 
ATOM     74  O   ASN A   3     -38.701 -21.463  -1.214  0.00  0.00    -0.273 OA
ATOM     75  N   ALA A   4     -40.244 -19.802  -1.334  0.00  0.00    -0.297 N 
ATOM     76  H   ALA A   4     -41.158 -19.448  -0.985  0.00  0.00    +0.150 HD
BRANCH  73  77
ATOM     77  CA  ASN A   3     -40.601 -21.583   0.239  0.00  0.00    +0.158 C 
BRANCH  77  80
ATOM     78  C   ALA A   2     -40.241 -19.920   1.938  0.00  0.00    +0.241 C 
ATOM     79  O   ALA A   2     -39.012 -20.051   1.858  0.00  0.00    -0.273 OA
ATOM     80  N   ASN A   3     -41.086 -20.583   1.162  0.00  0.00    -0.297 N 
ATOM     81  H   ASN A   3     -42.105 -20.382   1.218  0.00  0.00    +0.150 HD
BRANCH  78  82
ATOM     82  CA  ALA A   2     -40.875 -18.926   2.911  0.00  0.00    +0.149 C 
ATOM     83  CB  ALA A   2     -41.373 -19.636   4.177  0.00  0.00    +0.031 C 
BRANCH  82  85
ATOM     84  C   ALA A   1     -41.743 -17.455   1.180  0.00  0.00    +0.238 C 
ATOM     85  N   ALA A   2     -41.967 -18.203   2.260  0.00  0.00    -0.297 N 
ATOM     86  H   ALA A   2     -42.931 -18.273   2.645  0.00  0.00    +0.150 HD
ATOM     87  O   ALA A   1     -40.606 -17.256   0.737  0.00  0.00    -0.274 OA
BRANCH  84  88
ATOM     88  CA  ALA A   1     -42.978 -16.820   0.502  0.00  0.00    +0.145 C 
ATOM     89  CB  ALA A   1     -43.332 -15.456   1.157  0.00  0.00    +0.028 C 
BRANCH  88  90
ATOM     90  N   ALA A   1     -44.132 -17.717   0.543  0.00  0.00    -0.238 NA
ATOM     91  H   ALA A   1     -44.949 -17.475   1.139  0.00  0.00    +0.142 HD
ENDBRANCH  88  90
ENDBRANCH  84  88
ENDBRANCH  82  85
ENDBRANCH  78  82
ENDBRANCH  77  80
BRANCH  77  92
ATOM     92  CB  ASN A   3     -41.749 -22.406  -0.341  0.00  0.00    +0.114 C 
BRANCH  92  93
ATOM     93  CG  ASN A   3     -42.315 -23.395   0.667  0.00  0.00    +0.222 C 
ATOM     94  OD1 ASN A   3     -41.664 -23.730   1.654  0.00  0.00    -0.275 OA
ATOM     95  ND2 ASN A   3     -43.531 -23.863   0.422  0.00  0.00    -0.329 N 
ATOM     96 HD21 ASN A   3     -43.969 -24.541   1.078  0.00  0.00    +0.145 HD
ATOM     97 HD22 ASN A   3     -44.047 -23.552  -0.426  0.00  0.00    +0.145 HD
ENDBRANCH  92  93
ENDBRANCH  77  92
ENDBRANCH  73  77
ENDBRANCH  71  75
ENDBRANCH  67  71
ENDBRANCH  66  68
BRANCH  66  98
ATOM     98  CB  SER A   5     -37.345 -16.873   1.423  0.00  0.00    +0.166 C 
BRANCH  98  99
ATOM     99  OG  SER A   5     -36.195 -16.288   1.993  0.00  0.00    -0.380 OA
ATOM    100  H   SER A   5     -36.440 -15.842   2.842  0.00  0.00    +0.211 HD
ENDBRANCH  98  99
ENDBRANCH  66  98
ENDBRANCH  62  66
ENDBRANCH  60  63
ENDBRANCH  56  60
ENDBRANCH  55  58
BRANCH  55 101
ATOM    101  CB  ASP A   7     -36.610 -21.858  -3.546  0.00  0.00    +0.143 C 
BRANCH 101 102
ATOM    102  CG  ASP A   7     -37.508 -23.072  -3.359  0.00  0.00    +0.367 C 
ATOM    103  OD2 ASP A   7     -37.247 -23.875  -2.445  0.00  0.00    -0.246 OA
ATOM    104  OD1 ASP A   7     -38.485 -23.212  -4.118  0.00  0.00    -0.246 OA
ENDBRANCH 101 102
ENDBRANCH  55 101
ENDBRANCH   1  55
TORSDOF 39
REMARK  Name = ../refined-set-2016/3v78/3v78_pocket.pdb
REMARK  217 active torsions:
REMARK  status: ('A' for Active; 'I' for Inactive)
REMARK    1  A    between atoms: _1  and  _3
REMARK    2  A    between atoms: _3  and  _4
REMARK    3  A    between atoms: _7  and  _9
REMARK    4  A    between atoms: _9  and  _10
REMARK    5  A    between atoms: _13  and  _15
REMARK    6  A    between atoms: _15  and  _16
REMARK    7  A    between atoms: _15  and  _18
REMARK    8  A    between atoms: _18  and  _19
REMARK    9  A    between atoms: _24  and  _26
REMARK   10  A    between atoms: _26  and  _27
REMARK   11  A    between atoms: _30  and  _32
REMARK   12  A    between atoms: _32  and  _33
REMARK   13  A    between atoms: _32  and  _35
REMARK   14  A    between atoms: _35  and  _36
REMARK   15  A    between atoms: _38  and  _40
REMARK   16  A    between atoms: _40  and  _41
REMARK   17  A    between atoms: _44  and  _46
REMARK   18  A    between atoms: _46  and  _47
REMARK   19  A    between atoms: _46  and  _49
REMARK   20  A    between atoms: _49  and  _50
REMARK   21  A    between atoms: _53  and  _55
REMARK   22  A    between atoms: _55  and  _56
REMARK   23  A    between atoms: _55  and  _58
REMARK   24  A    between atoms: _58  and  _59
REMARK   25  A    between atoms: _62  and  _64
REMARK   26  A    between atoms: _64  and  _65
REMARK   27  A    between atoms: _64  and  _67
REMARK   28  A    between atoms: _67  and  _68
REMARK   29  A    between atoms: _71  and  _73
REMARK   30  A    between atoms: _73  and  _74
REMARK   31  A    between atoms: _77  and  _79
REMARK   32  A    between atoms: _79  and  _80
REMARK   33  A    between atoms: _79  and  _82
REMARK   34  A    between atoms: _82  and  _83
REMARK   35  A    between atoms: _83  and  _84
REMARK   36  A    between atoms: _89  and  _91
REMARK   37  A    between atoms: _91  and  _92
REMARK   38  A    between atoms: _91  and  _94
REMARK   39  A    between atoms: _94  and  _95
REMARK   40  A    between atoms: _105  and  _107
REMARK   41  A    between atoms: _107  and  _108
REMARK   42  A    between atoms: _107  and  _110
REMARK   43  A    between atoms: _110  and  _111
REMARK   44  A    between atoms: _114  and  _116
REMARK   45  A    between atoms: _116  and  _117
REMARK   46  A    between atoms: _120  and  _122
REMARK   47  A    between atoms: _122  and  _123
REMARK   48  A    between atoms: _122  and  _125
REMARK   49  A    between atoms: _125  and  _126
REMARK   50  A    between atoms: _129  and  _131
REMARK   51  A    between atoms: _131  and  _132
REMARK   52  A    between atoms: _131  and  _134
REMARK   53  A    between atoms: _134  and  _135
REMARK   54  A    between atoms: _138  and  _140
REMARK   55  A    between atoms: _140  and  _141
REMARK   56  A    between atoms: _140  and  _143
REMARK   57  A    between atoms: _143  and  _144
REMARK   58  A    between atoms: _147  and  _149
REMARK   59  A    between atoms: _149  and  _150
REMARK   60  A    between atoms: _149  and  _152
REMARK   61  A    between atoms: _155  and  _157
REMARK   62  A    between atoms: _157  and  _158
REMARK   63  A    between atoms: _157  and  _160
REMARK   64  A    between atoms: _160  and  _161
REMARK   65  A    between atoms: _166  and  _167
REMARK   66  A    between atoms: _169  and  _171
REMARK   67  A    between atoms: _171  and  _172
REMARK   68  A    between atoms: _171  and  _174
REMARK   69  A    between atoms: _174  and  _175
REMARK   70  A    between atoms: _178  and  _180
REMARK   71  A    between atoms: _180  and  _181
REMARK   72  A    between atoms: _180  and  _183
REMARK   73  A    between atoms: _183  and  _184
REMARK   74  A    between atoms: _189  and  _190
REMARK   75  A    between atoms: _192  and  _194
REMARK   76  A    between atoms: _194  and  _195
REMARK   77  A    between atoms: _194  and  _197
REMARK   78  A    between atoms: _197  and  _198
REMARK   79  A    between atoms: _198  and  _199
REMARK   80  A    between atoms: _199  and  _200
REMARK   81  A    between atoms: _209  and  _211
REMARK   82  A    between atoms: _211  and  _212
REMARK   83  A    between atoms: _211  and  _214
REMARK   84  A    between atoms: _214  and  _215
REMARK   85  A    between atoms: _218  and  _220
REMARK   86  A    between atoms: _220  and  _221
REMARK   87  A    between atoms: _220  and  _223
REMARK   88  A    between atoms: _223  and  _224
REMARK   89  A    between atoms: _227  and  _229
REMARK   90  A    between atoms: _229  and  _230
REMARK   91  A    between atoms: _229  and  _232
REMARK   92  A    between atoms: _232  and  _233
REMARK   93  A    between atoms: _238  and  _240
REMARK   94  A    between atoms: _240  and  _241
REMARK   95  A    between atoms: _240  and  _243
REMARK   96  A    between atoms: _243  and  _244
REMARK   97  A    between atoms: _244  and  _245
REMARK   98  A    between atoms: _248  and  _250
REMARK   99  A    between atoms: _250  and  _251
REMARK  100  A    between atoms: _250  and  _253
REMARK  101  A    between atoms: _253  and  _254
REMARK  102  A    between atoms: _257  and  _259
REMARK  103  A    between atoms: _259  and  _260
REMARK  104  A    between atoms: _259  and  _262
REMARK  105  A    between atoms: _262  and  _263
REMARK  106  A    between atoms: _268  and  _269
REMARK  107  A    between atoms: _271  and  _273
REMARK  108  A    between atoms: _273  and  _274
REMARK  109  A    between atoms: _273  and  _276
REMARK  110  A    between atoms: _276  and  _277
REMARK  111  A    between atoms: _277  and  _278
REMARK  112  A    between atoms: _280  and  _282
REMARK  113  A    between atoms: _282  and  _283
REMARK  114  A    between atoms: _286  and  _288
REMARK  115  A    between atoms: _288  and  _289
REMARK  116  A    between atoms: _288  and  _291
REMARK  117  A    between atoms: _291  and  _292
REMARK  118  A    between atoms: _295  and  _297
REMARK  119  A    between atoms: _297  and  _298
REMARK  120  A    between atoms: _301  and  _303
REMARK  121  A    between atoms: _303  and  _304
REMARK  122  A    between atoms: _303  and  _306
REMARK  123  A    between atoms: _306  and  _307
REMARK  124  A    between atoms: _307  and  _308
REMARK  125  A    between atoms: _308  and  _309
REMARK  126  A    between atoms: _318  and  _320
REMARK  127  A    between atoms: _320  and  _321
REMARK  128  A    between atoms: _320  and  _323
REMARK  129  A    between atoms: _323  and  _324
REMARK  130  A    between atoms: _327  and  _329
REMARK  131  A    between atoms: _329  and  _330
REMARK  132  A    between atoms: _329  and  _332
REMARK  133  A    between atoms: _332  and  _333
REMARK  134  A    between atoms: _344  and  _345
REMARK  135  A    between atoms: _350  and  _352
REMARK  136  A    between atoms: _352  and  _353
REMARK  137  A    between atoms: _355  and  _357
REMARK  138  A    between atoms: _357  and  _358
REMARK  139  A    between atoms: _357  and  _360
REMARK  140  A    between atoms: _360  and  _361
REMARK  141  A    between atoms: _364  and  _366
REMARK  142  A    between atoms: _366  and  _367
REMARK  143  A    between atoms: _366  and  _369
REMARK  144  A    between atoms: _372  and  _374
REMARK  145  A    between atoms: _374  and  _375
REMARK  146  A    between atoms: _374  and  _377
REMARK  147  A    between atoms: _377  and  _378
REMARK  148  A    between atoms: _381  and  _383
REMARK  149  A    between atoms: _383  and  _384
REMARK  150  A    between atoms: _383  and  _386
REMARK  151  A    between atoms: _389  and  _391
REMARK  152  A    between atoms: _391  and  _392
REMARK  153  A    between atoms: _391  and  _394
REMARK  154  A    between atoms: _394  and  _395
REMARK  155  A    between atoms: _401  and  _403
REMARK  156  A    between atoms: _403  and  _404
REMARK  157  A    between atoms: _403  and  _406
REMARK  158  A    between atoms: _406  and  _407
REMARK  159  A    between atoms: _413  and  _415
REMARK  160  A    between atoms: _415  and  _416
REMARK  161  A    between atoms: _415  and  _418
REMARK  162  A    between atoms: _418  and  _419
REMARK  163  A    between atoms: _422  and  _424
REMARK  164  A    between atoms: _424  and  _425
REMARK  165  A    between atoms: _427  and  _429
REMARK  166  A    between atoms: _429  and  _430
REMARK  167  A    between atoms: _433  and  _435
REMARK  168  A    between atoms: _435  and  _436
REMARK  169  A    between atoms: _435  and  _438
REMARK  170  A    between atoms: _438  and  _439
REMARK  171  A    between atoms: _442  and  _444
REMARK  172  A    between atoms: _444  and  _445
REMARK  173  A    between atoms: _444  and  _447
REMARK  174  A    between atoms: _447  and  _448
REMARK  175  A    between atoms: _451  and  _453
REMARK  176  A    between atoms: _453  and  _454
REMARK  177  A    between atoms: _453  and  _456
REMARK  178  A    between atoms: _456  and  _457
REMARK  179  A    between atoms: _462  and  _464
REMARK  180  A    between atoms: _464  and  _465
REMARK  181  A    between atoms: _468  and  _470
REMARK  182  A    between atoms: _470  and  _471
REMARK  183  A    between atoms: _470  and  _473
REMARK  184  A    between atoms: _473  and  _474
REMARK  185  A    between atoms: _477  and  _479
REMARK  186  A    between atoms: _479  and  _480
REMARK  187  A    between atoms: _479  and  _482
REMARK  188  A    between atoms: _482  and  _483
REMARK  189  A    between atoms: _486  and  _488
REMARK  190  A    between atoms: _488  and  _489
REMARK  191  A    between atoms: _488  and  _491
REMARK  192  A    between atoms: _491  and  _492
REMARK  193  A    between atoms: _492  and  _493
REMARK  194  A    between atoms: _495  and  _497
REMARK  195  A    between atoms: _497  and  _498
REMARK  196  A    between atoms: _501  and  _503
REMARK  197  A    between atoms: _503  and  _504
REMARK  198  A    between atoms: _503  and  _506
REMARK  199  A    between atoms: _506  and  _507
REMARK  200  A    between atoms: _512  and  _514
REMARK  201  A    between atoms: _514  and  _515
REMARK  202  A    between atoms: _514  and  _517
REMARK  203  A    between atoms: _517  and  _518
REMARK  204  A    between atoms: _521  and  _523
REMARK  205  A    between atoms: _523  and  _524
REMARK  206  A    between atoms: _526  and  _528
REMARK  207  A    between atoms: _528  and  _529
REMARK  208  A    between atoms: _528  and  _531
REMARK  209  A    between atoms: _531  and  _532
REMARK  210  A    between atoms: _535  and  _537
REMARK  211  A    between atoms: _537  and  _538
REMARK  212  A    between atoms: _537  and  _540
REMARK  213  A    between atoms: _540  and  _541
REMARK  214  A    between atoms: _546  and  _548
REMARK  215  A    between atoms: _548  and  _549
REMARK  216  A    between atoms: _548  and  _551
REMARK  217  A    between atoms: _551  and  _552
REMARK                            x       y       z     vdW  Elec       q    Type
REMARK                         _______ _______ _______ _____ _____    ______ ____
ROOT
ATOM      1  C   LEU A   1     -22.074 -11.936  -4.555  0.00  0.00    +0.238 C 
ATOM      2  O   LEU A   1     -23.243 -11.570  -4.489  0.00  0.00    -0.274 OA
ATOM      3  N   ALA A   2     -21.143 -11.244  -5.211  0.00  0.00    -0.298 N 
ATOM      4  H   ALA A   2     -20.160 -11.583  -5.208  0.00  0.00    +0.150 HD
ENDROOT
BRANCH   3   5
ATOM      5  CA  ALA A   2     -21.476 -10.011  -5.939  0.00  0.00    +0.137 C 
ATOM      6  CB  ALA A   2     -20.219  -9.302  -6.401  0.00  0.00    +0.030 C 
BRANCH   5   7
ATOM      7  C   ALA A   2     -22.386 -10.286  -7.130  0.00  0.00    +0.227 C 
ATOM      8  O   ALA A   2     -23.414  -9.639  -7.309  0.00  0.00    -0.286 OA
ENDBRANCH   5   7
ENDBRANCH   3   5
BRANCH   1   9
ATOM      9  CA  LEU A   1     -21.630 -13.233  -3.856  0.00  0.00    +0.145 C 
BRANCH   9  10
ATOM     10  N   LEU A   1     -20.628 -13.967  -4.616  0.00  0.00    -0.238 NA
ATOM     11  H   LEU A   1     -19.706 -14.172  -4.180  0.00  0.00    +0.142 HD
ENDBRANCH   9  10
BRANCH   9  12
ATOM     12  CB  LEU A   1     -21.113 -12.930  -2.443  0.00  0.00    +0.026 C 
BRANCH  12  13
ATOM     13  CG  LEU A   1     -20.820 -14.177  -1.608  0.00  0.00    +0.002 C 
ATOM     14  CD2 LEU A   1     -20.092 -13.804  -0.332  0.00  0.00    +0.000 C 
ATOM     15  CD1 LEU A   1     -22.103 -14.951  -1.308  0.00  0.00    +0.000 C 
ENDBRANCH  12  13
ENDBRANCH   9  12
ENDBRANCH   1   9
TORSDOF 6
REMARK  Name = ../refined-set-2016/3v78/3v78_pocket.pdb
REMARK  217 active torsions:
REMARK  status: ('A' for Active; 'I' for Inactive)
REMARK    1  A    between atoms: _1  and  _3
REMARK    2  A    between atoms: _3  and  _4
REMARK    3  A    between atoms: _7  and  _9
REMARK    4  A    between atoms: _9  and  _10
REMARK    5  A    between atoms: _13  and  _15
REMARK    6  A    between atoms: _15  and  _16
REMARK    7  A    between atoms: _15  and  _18
REMARK    8  A    between atoms: _18  and  _19
REMARK    9  A    between atoms: _24  and  _26
REMARK   10  A    between atoms: _26  and  _27
REMARK   11  A    between atoms: _30  and  _32
REMARK   12  A    between atoms: _32  and  _33
REMARK   13  A    between atoms: _32  and  _35
REMARK   14  A    between atoms: _35  and  _36
REMARK   15  A    between atoms: _38  and  _40
REMARK   16  A    between atoms: _40  and  _41
REMARK   17  A    between atoms: _44  and  _46
REMARK   18  A    between atoms: _46  and  _47
REMARK   19  A    between atoms: _46  and  _49
REMARK   20  A    between atoms: _49  and  _50
REMARK   21  A    between atoms: _53  and  _55
REMARK   22  A    between atoms: _55  and  _56
REMARK   23  A    between atoms: _55  and  _58
REMARK   24  A    between atoms: _58  and  _59
REMARK   25  A    between atoms: _62  and  _64
REMARK   26  A    between atoms: _64  and  _65
REMARK   27  A    between atoms: _64  and  _67
REMARK   28  A    between atoms: _67  and  _68
REMARK   29  A    between atoms: _71  and  _73
REMARK   30  A    between atoms: _73  and  _74
REMARK   31  A    between atoms: _77  and  _79
REMARK   32  A    between atoms: _79  and  _80
REMARK   33  A    between atoms: _79  and  _82
REMARK   34  A    between atoms: _82  and  _83
REMARK   35  A    between atoms: _83  and  _84
REMARK   36  A    between atoms: _89  and  _91
REMARK   37  A    between atoms: _91  and  _92
REMARK   38  A    between atoms: _91  and  _94
REMARK   39  A    between atoms: _94  and  _95
REMARK   40  A    between atoms: _105  and  _107
REMARK   41  A    between atoms: _107  and  _108
REMARK   42  A    between atoms: _107  and  _110
REMARK   43  A    between atoms: _110  and  _111
REMARK   44  A    between atoms: _114  and  _116
REMARK   45  A    between atoms: _116  and  _117
REMARK   46  A    between atoms: _120  and  _122
REMARK   47  A    between atoms: _122  and  _123
REMARK   48  A    between atoms: _122  and  _125
REMARK   49  A    between atoms: _125  and  _126
REMARK   50  A    between atoms: _129  and  _131
REMARK   51  A    between atoms: _131  and  _132
REMARK   52  A    between atoms: _131  and  _134
REMARK   53  A    between atoms: _134  and  _135
REMARK   54  A    between atoms: _138  and  _140
REMARK   55  A    between atoms: _140  and  _141
REMARK   56  A    between atoms: _140  and  _143
REMARK   57  A    between atoms: _143  and  _144
REMARK   58  A    between atoms: _147  and  _149
REMARK   59  A    between atoms: _149  and  _150
REMARK   60  A    between atoms: _149  and  _152
REMARK   61  A    between atoms: _155  and  _157
REMARK   62  A    between atoms: _157  and  _158
REMARK   63  A    between atoms: _157  and  _160
REMARK   64  A    between atoms: _160  and  _161
REMARK   65  A    between atoms: _166  and  _167
REMARK   66  A    between atoms: _169  and  _171
REMARK   67  A    between atoms: _171  and  _172
REMARK   68  A    between atoms: _171  and  _174
REMARK   69  A    between atoms: _174  and  _175
REMARK   70  A    between atoms: _178  and  _180
REMARK   71  A    between atoms: _180  and  _181
REMARK   72  A    between atoms: _180  and  _183
REMARK   73  A    between atoms: _183  and  _184
REMARK   74  A    between atoms: _189  and  _190
REMARK   75  A    between atoms: _192  and  _194
REMARK   76  A    between atoms: _194  and  _195
REMARK   77  A    between atoms: _194  and  _197
REMARK   78  A    between atoms: _197  and  _198
REMARK   79  A    between atoms: _198  and  _199
REMARK   80  A    between atoms: _199  and  _200
REMARK   81  A    between atoms: _209  and  _211
REMARK   82  A    between atoms: _211  and  _212
REMARK   83  A    between atoms: _211  and  _214
REMARK   84  A    between atoms: _214  and  _215
REMARK   85  A    between atoms: _218  and  _220
REMARK   86  A    between atoms: _220  and  _221
REMARK   87  A    between atoms: _220  and  _223
REMARK   88  A    between atoms: _223  and  _224
REMARK   89  A    between atoms: _227  and  _229
REMARK   90  A    between atoms: _229  and  _230
REMARK   91  A    between atoms: _229  and  _232
REMARK   92  A    between atoms: _232  and  _233
REMARK   93  A    between atoms: _238  and  _240
REMARK   94  A    between atoms: _240  and  _241
REMARK   95  A    between atoms: _240  and  _243
REMARK   96  A    between atoms: _243  and  _244
REMARK   97  A    between atoms: _244  and  _245
REMARK   98  A    between atoms: _248  and  _250
REMARK   99  A    between atoms: _250  and  _251
REMARK  100  A    between atoms: _250  and  _253
REMARK  101  A    between atoms: _253  and  _254
REMARK  102  A    between atoms: _257  and  _259
REMARK  103  A    between atoms: _259  and  _260
REMARK  104  A    between atoms: _259  and  _262
REMARK  105  A    between atoms: _262  and  _263
REMARK  106  A    between atoms: _268  and  _269
REMARK  107  A    between atoms: _271  and  _273
REMARK  108  A    between atoms: _273  and  _274
REMARK  109  A    between atoms: _273  and  _276
REMARK  110  A    between atoms: _276  and  _277
REMARK  111  A    between atoms: _277  and  _278
REMARK  112  A    between atoms: _280  and  _282
REMARK  113  A    between atoms: _282  and  _283
REMARK  114  A    between atoms: _286  and  _288
REMARK  115  A    between atoms: _288  and  _289
REMARK  116  A    between atoms: _288  and  _291
REMARK  117  A    between atoms: _291  and  _292
REMARK  118  A    between atoms: _295  and  _297
REMARK  119  A    between atoms: _297  and  _298
REMARK  120  A    between atoms: _301  and  _303
REMARK  121  A    between atoms: _303  and  _304
REMARK  122  A    between atoms: _303  and  _306
REMARK  123  A    between atoms: _306  and  _307
REMARK  124  A    between atoms: _307  and  _308
REMARK  125  A    between atoms: _308  and  _309
REMARK  126  A    between atoms: _318  and  _320
REMARK  127  A    between atoms: _320  and  _321
REMARK  128  A    between atoms: _320  and  _323
REMARK  129  A    between atoms: _323  and  _324
REMARK  130  A    between atoms: _327  and  _329
REMARK  131  A    between atoms: _329  and  _330
REMARK  132  A    between atoms: _329  and  _332
REMARK  133  A    between atoms: _332  and  _333
REMARK  134  A    between atoms: _344  and  _345
REMARK  135  A    between atoms: _350  and  _352
REMARK  136  A    between atoms: _352  and  _353
REMARK  137  A    between atoms: _355  and  _357
REMARK  138  A    between atoms: _357  and  _358
REMARK  139  A    between atoms: _357  and  _360
REMARK  140  A    between atoms: _360  and  _361
REMARK  141  A    between atoms: _364  and  _366
REMARK  142  A    between atoms: _366  and  _367
REMARK  143  A    between atoms: _366  and  _369
REMARK  144  A    between atoms: _372  and  _374
REMARK  145  A    between atoms: _374  and  _375
REMARK  146  A    between atoms: _374  and  _377
REMARK  147  A    between atoms: _377  and  _378
REMARK  148  A    between atoms: _381  and  _383
REMARK  149  A    between atoms: _383  and  _384
REMARK  150  A    between atoms: _383  and  _386
REMARK  151  A    between atoms: _389  and  _391
REMARK  152  A    between atoms: _391  and  _392
REMARK  153  A    between atoms: _391  and  _394
REMARK  154  A    between atoms: _394  and  _395
REMARK  155  A    between atoms: _401  and  _403
REMARK  156  A    between atoms: _403  and  _404
REMARK  157  A    between atoms: _403  and  _406
REMARK  158  A    between atoms: _406  and  _407
REMARK  159  A    between atoms: _413  and  _415
REMARK  160  A    between atoms: _415  and  _416
REMARK  161  A    between atoms: _415  and  _418
REMARK  162  A    between atoms: _418  and  _419
REMARK  163  A    between atoms: _422  and  _424
REMARK  164  A    between atoms: _424  and  _425
REMARK  165  A    between atoms: _427  and  _429
REMARK  166  A    between atoms: _429  and  _430
REMARK  167  A    between atoms: _433  and  _435
REMARK  168  A    between atoms: _435  and  _436
REMARK  169  A    between atoms: _435  and  _438
REMARK  170  A    between atoms: _438  and  _439
REMARK  171  A    between atoms: _442  and  _444
REMARK  172  A    between atoms: _444  and  _445
REMARK  173  A    between atoms: _444  and  _447
REMARK  174  A    between atoms: _447  and  _448
REMARK  175  A    between atoms: _451  and  _453
REMARK  176  A    between atoms: _453  and  _454
REMARK  177  A    between atoms: _453  and  _456
REMARK  178  A    between atoms: _456  and  _457
REMARK  179  A    between atoms: _462  and  _464
REMARK  180  A    between atoms: _464  and  _465
REMARK  181  A    between atoms: _468  and  _470
REMARK  182  A    between atoms: _470  and  _471
REMARK  183  A    between atoms: _470  and  _473
REMARK  184  A    between atoms: _473  and  _474
REMARK  185  A    between atoms: _477  and  _479
REMARK  186  A    between atoms: _479  and  _480
REMARK  187  A    between atoms: _479  and  _482
REMARK  188  A    between atoms: _482  and  _483
REMARK  189  A    between atoms: _486  and  _488
REMARK  190  A    between atoms: _488  and  _489
REMARK  191  A    between atoms: _488  and  _491
REMARK  192  A    between atoms: _491  and  _492
REMARK  193  A    between atoms: _492  and  _493
REMARK  194  A    between atoms: _495  and  _497
REMARK  195  A    between atoms: _497  and  _498
REMARK  196  A    between atoms: _501  and  _503
REMARK  197  A    between atoms: _503  and  _504
REMARK  198  A    between atoms: _503  and  _506
REMARK  199  A    between atoms: _506  and  _507
REMARK  200  A    between atoms: _512  and  _514
REMARK  201  A    between atoms: _514  and  _515
REMARK  202  A    between atoms: _514  and  _517
REMARK  203  A    between atoms: _517  and  _518
REMARK  204  A    between atoms: _521  and  _523
REMARK  205  A    between atoms: _523  and  _524
REMARK  206  A    between atoms: _526  and  _528
REMARK  207  A    between atoms: _528  and  _529
REMARK  208  A    between atoms: _528  and  _531
REMARK  209  A    between atoms: _531  and  _532
REMARK  210  A    between atoms: _535  and  _537
REMARK  211  A    between atoms: _537  and  _538
REMARK  212  A    between atoms: _537  and  _540
REMARK  213  A    between atoms: _540  and  _541
REMARK  214  A    between atoms: _546  and  _548
REMARK  215  A    between atoms: _548  and  _549
REMARK  216  A    between atoms: _548  and  _551
REMARK  217  A    between atoms: _551  and  _552
REMARK                            x       y       z     vdW  Elec       q    Type
REMARK                         _______ _______ _______ _____ _____    ______ ____
ROOT
ATOM      1  C   THR A   3     -27.532  -8.685  -9.550  0.00  0.00    +0.243 C 
ATOM      2  N   VAL A   4     -27.576 -10.009  -9.617  0.00  0.00    -0.297 N 
ATOM      3  H   VAL A   4     -26.794 -10.563  -9.214  0.00  0.00    +0.150 HD
ATOM      4  O   THR A   3     -28.408  -7.961 -10.013  0.00  0.00    -0.273 OA
ENDROOT
BRANCH   2   5
ATOM      5  CA  VAL A   4     -28.691 -10.705 -10.240  0.00  0.00    +0.149 C 
BRANCH   5   6
ATOM      6  C   VAL A   4     -29.974 -10.475  -9.454  0.00  0.00    +0.241 C 
ATOM      7  N   TYR A   5     -29.851 -10.425  -8.133  0.00  0.00    -0.297 N 
ATOM      8  H   TYR A   5     -28.912 -10.559  -7.707  0.00  0.00    +0.150 HD
ATOM      9  O   VAL A   4     -31.049 -10.346 -10.030  0.00  0.00    -0.273 OA
BRANCH   7  10
ATOM     10  CA  TYR A   5     -30.995 -10.188  -7.265  0.00  0.00    +0.153 C 
BRANCH  10  11
ATOM     11  C   TYR A   5     -31.545  -8.775  -7.446  0.00  0.00    +0.241 C 
ATOM     12  O   TYR A   5     -32.756  -8.574  -7.449  0.00  0.00    -0.273 OA
ATOM     13  N   LEU A   6     -30.650  -7.804  -7.602  0.00  0.00    -0.298 N 
ATOM     14  H   LEU A   6     -29.638  -8.041  -7.589  0.00  0.00    +0.150 HD
BRANCH  13  15
ATOM     15  CA  LEU A   6     -31.050  -6.421  -7.790  0.00  0.00    +0.137 C 
BRANCH  15  16
ATOM     16  C   LEU A   6     -31.697  -6.244  -9.164  0.00  0.00    +0.227 C 
ATOM     17  O   LEU A   6     -32.570  -5.401  -9.344  0.00  0.00    -0.286 OA
ENDBRANCH  15  16
BRANCH  15  18
ATOM     18  CB  LEU A   6     -29.853  -5.489  -7.614  0.00  0.00    +0.028 C 
BRANCH  18  19
ATOM     19  CG  LEU A   6     -29.307  -5.451  -6.187  0.00  0.00    +0.002 C 
ATOM     20  CD2 LEU A   6     -30.351  -4.900  -5.234  0.00  0.00    +0.000 C 
ATOM     21  CD1 LEU A   6     -28.019  -4.656  -6.098  0.00  0.00    +0.000 C 
ENDBRANCH  18  19
ENDBRANCH  15  18
ENDBRANCH  13  15
ENDBRANCH  10  11
BRANCH  10  22
ATOM     22  CB  TYR A   5     -30.615 -10.426  -5.802  0.00  0.00    +0.055 C 
BRANCH  22  23
ATOM     23  CG  TYR A   5     -31.794 -10.489  -4.861  0.00  0.00    -0.020 A 
ATOM     24  CD2 TYR A   5     -31.973  -9.531  -3.877  0.00  0.00    -0.001 A 
ATOM     25  CE2 TYR A   5     -33.047  -9.585  -3.016  0.00  0.00    +0.036 A 
ATOM     26  CZ  TYR A   5     -33.962 -10.607  -3.131  0.00  0.00    +0.134 A 
ATOM     27  CE1 TYR A   5     -33.807 -11.572  -4.100  0.00  0.00    +0.036 A 
ATOM     28  CD1 TYR A   5     -32.729 -11.509  -4.957  0.00  0.00    -0.001 A 
BRANCH  26  29
ATOM     29  OH  TYR A   5     -35.034 -10.664  -2.277  0.00  0.00    -0.506 OA
ATOM     30  HH  TYR A   5     -35.577  -9.842  -2.376  0.00  0.00    +0.292 HD
ENDBRANCH  26  29
ENDBRANCH  22  23
ENDBRANCH  10  22
ENDBRANCH   7  10
ENDBRANCH   5   6
BRANCH   5  31
ATOM     31  CB  VAL A   4     -28.425 -12.215 -10.344  0.00  0.00    +0.027 C 
ATOM     32  CG2 VAL A   4     -29.728 -12.985 -10.295  0.00  0.00    +0.002 C 
ATOM     33  CG1 VAL A   4     -27.666 -12.530 -11.616  0.00  0.00    +0.002 C 
ENDBRANCH   5  31
ENDBRANCH   2   5
BRANCH   1  34
ATOM     34  CA  THR A   3     -26.319  -8.096  -8.852  0.00  0.00    +0.176 C 
BRANCH  34  37
ATOM     35  C   THR A   2     -26.959  -9.077  -6.726  0.00  0.00    +0.243 C 
ATOM     36  O   THR A   2     -28.094  -8.619  -6.797  0.00  0.00    -0.273 OA
ATOM     37  N   THR A   3     -26.032  -8.861  -7.651  0.00  0.00    -0.295 N 
ATOM     38  H   THR A   3     -25.077  -9.249  -7.513  0.00  0.00    +0.150 HD
BRANCH  35  39
ATOM     39  CA  THR A   2     -26.539  -9.945  -5.551  0.00  0.00    +0.176 C 
BRANCH  39  41
ATOM     40  C   LEU A   1     -26.466 -12.089  -6.689  0.00  0.00    +0.238 C 
ATOM     41  N   THR A   2     -25.836 -11.125  -6.029  0.00  0.00    -0.295 N 
ATOM     42  H   THR A   2     -24.816 -11.216  -5.849  0.00  0.00    +0.150 HD
ATOM     43  O   LEU A   1     -27.672 -12.071  -6.909  0.00  0.00    -0.274 OA
BRANCH  40  44
ATOM     44  CA  LEU A   1     -25.609 -13.257  -7.159  0.00  0.00    +0.145 C 
BRANCH  44  45
ATOM     45  N   LEU A   1     -24.309 -12.823  -7.655  0.00  0.00    -0.238 NA
ATOM     46  H   LEU A   1     -23.450 -13.178  -7.188  0.00  0.00    +0.142 HD
ENDBRANCH  44  45
BRANCH  44  47
ATOM     47  CB  LEU A   1     -25.438 -14.265  -6.022  0.00  0.00    +0.026 C 
BRANCH  47  48
ATOM     48  CG  LEU A   1     -24.857 -15.625  -6.407  0.00  0.00    +0.002 C 
ATOM     49  CD2 LEU A   1     -24.316 -16.335  -5.184  0.00  0.00    +0.000 C 
ATOM     50  CD1 LEU A   1     -25.901 -16.472  -7.102  0.00  0.00    +0.000 C 
ENDBRANCH  47  48
ENDBRANCH  44  47
ENDBRANCH  40  44
ENDBRANCH  39  41
BRANCH  39  51
ATOM     51  CB  THR A   2     -25.668  -9.118  -4.593  0.00  0.00    +0.137 C 
ATOM     52  CG2 THR A   2     -26.371  -7.828  -4.214  0.00  0.00    +0.034 C 
BRANCH  51  53
ATOM     53  OG1 THR A   2     -25.408  -9.878  -3.410  0.00  0.00    -0.382 OA
ATOM     54  HG1 THR A   2     -24.933 -10.712  -3.653  0.00  0.00    +0.210 HD
ENDBRANCH  51  53
ENDBRANCH  39  51
ENDBRANCH  35  39
ENDBRANCH  34  37
BRANCH  34  55
ATOM     55  CB  THR A   3     -25.130  -8.106  -9.823  0.00  0.00    +0.137 C 
ATOM     56  CG2 THR A   3     -25.588  -7.766 -11.230  0.00  0.00    +0.034 C 
BRANCH  55  57
ATOM     57  OG1 THR A   3     -24.157  -7.146  -9.399  0.00  0.00    -0.382 OA
ATOM     58  HG1 THR A   3     -23.391  -7.154 -10.027  0.00  0.00    +0.210 HD
ENDBRANCH  55  57
ENDBRANCH  34  55
ENDBRANCH   1  34
TORSDOF 24
REMARK  Name = ../refined-set-2016/3v78/3v78_pocket.pdb
REMARK  217 active torsions:
REMARK  status: ('A' for Active; 'I' for Inactive)
REMARK    1  A    between atoms: _1  and  _3
REMARK    2  A    between atoms: _3  and  _4
REMARK    3  A    between atoms: _7  and  _9
REMARK    4  A    between atoms: _9  and  _10
REMARK    5  A    between atoms: _13  and  _15
REMARK    6  A    between atoms: _15  and  _16
REMARK    7  A    between atoms: _15  and  _18
REMARK    8  A    between atoms: _18  and  _19
REMARK    9  A    between atoms: _24  and  _26
REMARK   10  A    between atoms: _26  and  _27
REMARK   11  A    between atoms: _30  and  _32
REMARK   12  A    between atoms: _32  and  _33
REMARK   13  A    between atoms: _32  and  _35
REMARK   14  A    between atoms: _35  and  _36
REMARK   15  A    between atoms: _38  and  _40
REMARK   16  A    between atoms: _40  and  _41
REMARK   17  A    between atoms: _44  and  _46
REMARK   18  A    between atoms: _46  and  _47
REMARK   19  A    between atoms: _46  and  _49
REMARK   20  A    between atoms: _49  and  _50
REMARK   21  A    between atoms: _53  and  _55
REMARK   22  A    between atoms: _55  and  _56
REMARK   23  A    between atoms: _55  and  _58
REMARK   24  A    between atoms: _58  and  _59
REMARK   25  A    between atoms: _62  and  _64
REMARK   26  A    between atoms: _64  and  _65
REMARK   27  A    between atoms: _64  and  _67
REMARK   28  A    between atoms: _67  and  _68
REMARK   29  A    between atoms: _71  and  _73
REMARK   30  A    between atoms: _73  and  _74
REMARK   31  A    between atoms: _77  and  _79
REMARK   32  A    between atoms: _79  and  _80
REMARK   33  A    between atoms: _79  and  _82
REMARK   34  A    between atoms: _82  and  _83
REMARK   35  A    between atoms: _83  and  _84
REMARK   36  A    between atoms: _89  and  _91
REMARK   37  A    between atoms: _91  and  _92
REMARK   38  A    between atoms: _91  and  _94
REMARK   39  A    between atoms: _94  and  _95
REMARK   40  A    between atoms: _105  and  _107
REMARK   41  A    between atoms: _107  and  _108
REMARK   42  A    between atoms: _107  and  _110
REMARK   43  A    between atoms: _110  and  _111
REMARK   44  A    between atoms: _114  and  _116
REMARK   45  A    between atoms: _116  and  _117
REMARK   46  A    between atoms: _120  and  _122
REMARK   47  A    between atoms: _122  and  _123
REMARK   48  A    between atoms: _122  and  _125
REMARK   49  A    between atoms: _125  and  _126
REMARK   50  A    between atoms: _129  and  _131
REMARK   51  A    between atoms: _131  and  _132
REMARK   52  A    between atoms: _131  and  _134
REMARK   53  A    between atoms: _134  and  _135
REMARK   54  A    between atoms: _138  and  _140
REMARK   55  A    between atoms: _140  and  _141
REMARK   56  A    between atoms: _140  and  _143
REMARK   57  A    between atoms: _143  and  _144
REMARK   58  A    between atoms: _147  and  _149
REMARK   59  A    between atoms: _149  and  _150
REMARK   60  A    between atoms: _149  and  _152
REMARK   61  A    between atoms: _155  and  _157
REMARK   62  A    between atoms: _157  and  _158
REMARK   63  A    between atoms: _157  and  _160
REMARK   64  A    between atoms: _160  and  _161
REMARK   65  A    between atoms: _166  and  _167
REMARK   66  A    between atoms: _169  and  _171
REMARK   67  A    between atoms: _171  and  _172
REMARK   68  A    between atoms: _171  and  _174
REMARK   69  A    between atoms: _174  and  _175
REMARK   70  A    between atoms: _178  and  _180
REMARK   71  A    between atoms: _180  and  _181
REMARK   72  A    between atoms: _180  and  _183
REMARK   73  A    between atoms: _183  and  _184
REMARK   74  A    between atoms: _189  and  _190
REMARK   75  A    between atoms: _192  and  _194
REMARK   76  A    between atoms: _194  and  _195
REMARK   77  A    between atoms: _194  and  _197
REMARK   78  A    between atoms: _197  and  _198
REMARK   79  A    between atoms: _198  and  _199
REMARK   80  A    between atoms: _199  and  _200
REMARK   81  A    between atoms: _209  and  _211
REMARK   82  A    between atoms: _211  and  _212
REMARK   83  A    between atoms: _211  and  _214
REMARK   84  A    between atoms: _214  and  _215
REMARK   85  A    between atoms: _218  and  _220
REMARK   86  A    between atoms: _220  and  _221
REMARK   87  A    between atoms: _220  and  _223
REMARK   88  A    between atoms: _223  and  _224
REMARK   89  A    between atoms: _227  and  _229
REMARK   90  A    between atoms: _229  and  _230
REMARK   91  A    between atoms: _229  and  _232
REMARK   92  A    between atoms: _232  and  _233
REMARK   93  A    between atoms: _238  and  _240
REMARK   94  A    between atoms: _240  and  _241
REMARK   95  A    between atoms: _240  and  _243
REMARK   96  A    between atoms: _243  and  _244
REMARK   97  A    between atoms: _244  and  _245
REMARK   98  A    between atoms: _248  and  _250
REMARK   99  A    between atoms: _250  and  _251
REMARK  100  A    between atoms: _250  and  _253
REMARK  101  A    between atoms: _253  and  _254
REMARK  102  A    between atoms: _257  and  _259
REMARK  103  A    between atoms: _259  and  _260
REMARK  104  A    between atoms: _259  and  _262
REMARK  105  A    between atoms: _262  and  _263
REMARK  106  A    between atoms: _268  and  _269
REMARK  107  A    between atoms: _271  and  _273
REMARK  108  A    between atoms: _273  and  _274
REMARK  109  A    between atoms: _273  and  _276
REMARK  110  A    between atoms: _276  and  _277
REMARK  111  A    between atoms: _277  and  _278
REMARK  112  A    between atoms: _280  and  _282
REMARK  113  A    between atoms: _282  and  _283
REMARK  114  A    between atoms: _286  and  _288
REMARK  115  A    between atoms: _288  and  _289
REMARK  116  A    between atoms: _288  and  _291
REMARK  117  A    between atoms: _291  and  _292
REMARK  118  A    between atoms: _295  and  _297
REMARK  119  A    between atoms: _297  and  _298
REMARK  120  A    between atoms: _301  and  _303
REMARK  121  A    between atoms: _303  and  _304
REMARK  122  A    between atoms: _303  and  _306
REMARK  123  A    between atoms: _306  and  _307
REMARK  124  A    between atoms: _307  and  _308
REMARK  125  A    between atoms: _308  and  _309
REMARK  126  A    between atoms: _318  and  _320
REMARK  127  A    between atoms: _320  and  _321
REMARK  128  A    between atoms: _320  and  _323
REMARK  129  A    between atoms: _323  and  _324
REMARK  130  A    between atoms: _327  and  _329
REMARK  131  A    between atoms: _329  and  _330
REMARK  132  A    between atoms: _329  and  _332
REMARK  133  A    between atoms: _332  and  _333
REMARK  134  A    between atoms: _344  and  _345
REMARK  135  A    between atoms: _350  and  _352
REMARK  136  A    between atoms: _352  and  _353
REMARK  137  A    between atoms: _355  and  _357
REMARK  138  A    between atoms: _357  and  _358
REMARK  139  A    between atoms: _357  and  _360
REMARK  140  A    between atoms: _360  and  _361
REMARK  141  A    between atoms: _364  and  _366
REMARK  142  A    between atoms: _366  and  _367
REMARK  143  A    between atoms: _366  and  _369
REMARK  144  A    between atoms: _372  and  _374
REMARK  145  A    between atoms: _374  and  _375
REMARK  146  A    between atoms: _374  and  _377
REMARK  147  A    between atoms: _377  and  _378
REMARK  148  A    between atoms: _381  and  _383
REMARK  149  A    between atoms: _383  and  _384
REMARK  150  A    between atoms: _383  and  _386
REMARK  151  A    between atoms: _389  and  _391
REMARK  152  A    between atoms: _391  and  _392
REMARK  153  A    between atoms: _391  and  _394
REMARK  154  A    between atoms: _394  and  _395
REMARK  155  A    between atoms: _401  and  _403
REMARK  156  A    between atoms: _403  and  _404
REMARK  157  A    between atoms: _403  and  _406
REMARK  158  A    between atoms: _406  and  _407
REMARK  159  A    between atoms: _413  and  _415
REMARK  160  A    between atoms: _415  and  _416
REMARK  161  A    between atoms: _415  and  _418
REMARK  162  A    between atoms: _418  and  _419
REMARK  163  A    between atoms: _422  and  _424
REMARK  164  A    between atoms: _424  and  _425
REMARK  165  A    between atoms: _427  and  _429
REMARK  166  A    between atoms: _429  and  _430
REMARK  167  A    between atoms: _433  and  _435
REMARK  168  A    between atoms: _435  and  _436
REMARK  169  A    between atoms: _435  and  _438
REMARK  170  A    between atoms: _438  and  _439
REMARK  171  A    between atoms: _442  and  _444
REMARK  172  A    between atoms: _444  and  _445
REMARK  173  A    between atoms: _444  and  _447
REMARK  174  A    between atoms: _447  and  _448
REMARK  175  A    between atoms: _451  and  _453
REMARK  176  A    between atoms: _453  and  _454
REMARK  177  A    between atoms: _453  and  _456
REMARK  178  A    between atoms: _456  and  _457
REMARK  179  A    between atoms: _462  and  _464
REMARK  180  A    between atoms: _464  and  _465
REMARK  181  A    between atoms: _468  and  _470
REMARK  182  A    between atoms: _470  and  _471
REMARK  183  A    between atoms: _470  and  _473
REMARK  184  A    between atoms: _473  and  _474
REMARK  185  A    between atoms: _477  and  _479
REMARK  186  A    between atoms: _479  and  _480
REMARK  187  A    between atoms: _479  and  _482
REMARK  188  A    between atoms: _482  and  _483
REMARK  189  A    between atoms: _486  and  _488
REMARK  190  A    between atoms: _488  and  _489
REMARK  191  A    between atoms: _488  and  _491
REMARK  192  A    between atoms: _491  and  _492
REMARK  193  A    between atoms: _492  and  _493
REMARK  194  A    between atoms: _495  and  _497
REMARK  195  A    between atoms: _497  and  _498
REMARK  196  A    between atoms: _501  and  _503
REMARK  197  A    between atoms: _503  and  _504
REMARK  198  A    between atoms: _503  and  _506
REMARK  199  A    between atoms: _506  and  _507
REMARK  200  A    between atoms: _512  and  _514
REMARK  201  A    between atoms: _514  and  _515
REMARK  202  A    between atoms: _514  and  _517
REMARK  203  A    between atoms: _517  and  _518
REMARK  204  A    between atoms: _521  and  _523
REMARK  205  A    between atoms: _523  and  _524
REMARK  206  A    between atoms: _526  and  _528
REMARK  207  A    between atoms: _528  and  _529
REMARK  208  A    between atoms: _528  and  _531
REMARK  209  A    between atoms: _531  and  _532
REMARK  210  A    between atoms: _535  and  _537
REMARK  211  A    between atoms: _537  and  _538
REMARK  212  A    between atoms: _537  and  _540
REMARK  213  A    between atoms: _540  and  _541
REMARK  214  A    between atoms: _546  and  _548
REMARK  215  A    between atoms: _548  and  _549
REMARK  216  A    between atoms: _548  and  _551
REMARK  217  A    between atoms: _551  and  _552
REMARK                            x       y       z     vdW  Elec       q    Type
REMARK                         _______ _______ _______ _____ _____    ______ ____
ROOT
ATOM      1  CA  ASN A   5     -38.497  -7.547  -0.560  0.00  0.00    +0.158 C 
ENDROOT
BRANCH   1   4
ATOM      2  C   LEU A   4     -39.591  -9.683  -0.144  0.00  0.00    +0.241 C 
ATOM      3  O   LEU A   4     -39.461  -9.568   1.068  0.00  0.00    -0.273 OA
ATOM      4  N   ASN A   5     -39.162  -8.767  -1.003  0.00  0.00    -0.297 N 
ATOM      5  H   ASN A   5     -39.304  -8.924  -2.021  0.00  0.00    +0.150 HD
BRANCH   2   6
ATOM      6  CA  LEU A   4     -40.289 -10.902  -0.750  0.00  0.00    +0.149 C 
BRANCH   6   9
ATOM      7  C   THR A   3     -42.250  -9.687  -1.508  0.00  0.00    +0.243 C 
ATOM      8  O   THR A   3     -42.475  -9.265  -0.372  0.00  0.00    -0.273 OA
ATOM      9  N   LEU A   4     -41.243 -10.520  -1.782  0.00  0.00    -0.297 N 
ATOM     10  H   LEU A   4     -41.139 -10.901  -2.744  0.00  0.00    +0.150 HD
BRANCH   7  11
ATOM     11  CA  THR A   3     -43.115  -9.224  -2.701  0.00  0.00    +0.176 C 
BRANCH  11  14
ATOM     12  C   ARG A   2     -41.391  -7.888  -3.769  0.00  0.00    +0.241 C 
ATOM     13  O   ARG A   2     -41.208  -7.246  -2.736  0.00  0.00    -0.273 OA
ATOM     14  N   THR A   3     -42.290  -8.875  -3.855  0.00  0.00    -0.295 N 
ATOM     15  H   THR A   3     -42.402  -9.396  -4.748  0.00  0.00    +0.150 HD
BRANCH  12  16
ATOM     16  CA  ARG A   2     -40.589  -7.539  -5.033  0.00  0.00    +0.149 C 
BRANCH  16  19
ATOM     17  C   TYR A   1     -39.217  -9.568  -5.099  0.00  0.00    +0.239 C 
ATOM     18  O   TYR A   1     -38.995  -9.522  -3.891  0.00  0.00    -0.274 OA
ATOM     19  N   ARG A   2     -39.978  -8.675  -5.727  0.00  0.00    -0.297 N 
ATOM     20  H   ARG A   2     -40.145  -8.788  -6.747  0.00  0.00    +0.150 HD
BRANCH  17  21
ATOM     21  CA  TYR A   1     -38.628 -10.693  -5.965  0.00  0.00    +0.149 C 
BRANCH  21  22
ATOM     22  N   TYR A   1     -38.821 -10.546  -7.421  0.00  0.00    -0.238 NA
ATOM     23  H   TYR A   1     -38.264  -9.841  -7.944  0.00  0.00    +0.142 HD
ENDBRANCH  21  22
BRANCH  21  24
ATOM     24  CB  TYR A   1     -37.141 -10.892  -5.645  0.00  0.00    +0.053 C 
BRANCH  24  25
ATOM     25  CG  TYR A   1     -36.564 -12.164  -6.226  0.00  0.00    -0.020 A 
ATOM     26  CD2 TYR A   1     -37.123 -13.402  -5.917  0.00  0.00    -0.001 A 
ATOM     27  CE2 TYR A   1     -36.608 -14.579  -6.452  0.00  0.00    +0.036 A 
ATOM     28  CZ  TYR A   1     -35.520 -14.529  -7.301  0.00  0.00    +0.134 A 
ATOM     29  CE1 TYR A   1     -34.933 -13.309  -7.622  0.00  0.00    +0.036 A 
ATOM     30  CD1 TYR A   1     -35.453 -12.135  -7.083  0.00  0.00    -0.001 A 
BRANCH  28  31
ATOM     31  OH  TYR A   1     -35.022 -15.705  -7.817  0.00  0.00    -0.506 OA
ATOM     32  HH  TYR A   1     -35.561 -16.465  -7.483  0.00  0.00    +0.292 HD
ENDBRANCH  28  31
ENDBRANCH  24  25
ENDBRANCH  21  24
ENDBRANCH  17  21
ENDBRANCH  16  19
BRANCH  16  33
ATOM     33  CB  ARG A   2     -41.474  -6.735  -5.986  0.00  0.00    +0.033 C 
BRANCH  33  34
ATOM     34  CG  ARG A   2     -42.226  -5.628  -5.300  0.00  0.00    +0.045 C 
BRANCH  34  35
ATOM     35  CD  ARG A   2     -43.175  -4.892  -6.240  0.00  0.00    +0.174 C 
BRANCH  35  36
ATOM     36  NE  ARG A   2     -42.659  -3.565  -6.540  0.00  0.00    -0.265 N 
ATOM     37  CZ  ARG A   2     -43.123  -2.439  -6.013  0.00  0.00    +0.342 C 
ATOM     38  NH2 ARG A   2     -44.135  -2.476  -5.162  0.00  0.00    -0.292 N 
ATOM     39 HH21 ARG A   2     -44.499  -1.594  -4.749  0.00  0.00    +0.255 HD
ATOM     40 HH22 ARG A   2     -44.566  -3.387  -4.906  0.00  0.00    +0.255 HD
ATOM     41  NH1 ARG A   2     -42.578  -1.270  -6.346  0.00  0.00    -0.292 N 
ATOM     42 HH11 ARG A   2     -42.944  -0.389  -5.932  0.00  0.00    +0.255 HD
ATOM     43 HH12 ARG A   2     -41.787  -1.238  -7.020  0.00  0.00    +0.255 HD
ATOM     44  HE  ARG A   2     -41.871  -3.494  -7.215  0.00  0.00    +0.259 HD
ENDBRANCH  35  36
ENDBRANCH  34  35
ENDBRANCH  33  34
ENDBRANCH  16  33
ENDBRANCH  12  16
ENDBRANCH  11  14
BRANCH  11  45
ATOM     45  CB  THR A   3     -44.227 -10.265  -3.046  0.00  0.00    +0.137 C 
ATOM     46  CG2 THR A   3     -45.159  -9.733  -4.151  0.00  0.00    +0.034 C 
BRANCH  45  47
ATOM     47  OG1 THR A   3     -43.622 -11.490  -3.476  0.00  0.00    -0.382 OA
ATOM     48  HG1 THR A   3     -43.070 -11.320  -4.280  0.00  0.00    +0.210 HD
ENDBRANCH  45  47
ENDBRANCH  11  45
ENDBRANCH   7  11
ENDBRANCH   6   9
BRANCH   6  49
ATOM     49  CB  LEU A   4     -39.233 -11.865  -1.303  0.00  0.00    +0.029 C 
BRANCH  49  50
ATOM     50  CG  LEU A   4     -39.335 -13.344  -0.934  0.00  0.00    +0.002 C 
ATOM     51  CD2 LEU A   4     -39.731 -13.512   0.524  0.00  0.00    +0.000 C 
ATOM     52  CD1 LEU A   4     -38.010 -14.057  -1.223  0.00  0.00    +0.000 C 
ENDBRANCH  49  50
ENDBRANCH   6  49
ENDBRANCH   2   6
ENDBRANCH   1   4
BRANCH   1  53
ATOM     53  C   ASN A   5     -39.379  -6.675   0.305  0.00  0.00    +0.241 C 
ATOM     54  O   ASN A   5     -38.949  -6.167   1.336  0.00  0.00    -0.273 OA
ATOM     55  N   GLU A   6     -40.617  -6.505  -0.132  0.00  0.00    -0.297 N 
ATOM     56  H   GLU A   6     -40.908  -6.959  -1.021  0.00  0.00    +0.150 HD
BRANCH  55  57
ATOM     57  CA  GLU A   6     -41.583  -5.697   0.602  0.00  0.00    +0.149 C 
BRANCH  57  58
ATOM     58  C   GLU A   6     -41.828  -6.292   1.978  0.00  0.00    +0.241 C 
ATOM     59  O   GLU A   6     -41.873  -5.582   2.977  0.00  0.00    -0.273 OA
ATOM     60  N   LEU A   7     -41.986  -7.608   2.014  0.00  0.00    -0.297 N 
ATOM     61  H   LEU A   7     -41.957  -8.142   1.122  0.00  0.00    +0.150 HD
BRANCH  60  62
ATOM     62  CA  LEU A   7     -42.198  -8.329   3.254  0.00  0.00    +0.149 C 
BRANCH  62  63
ATOM     63  C   LEU A   7     -40.996  -8.216   4.164  0.00  0.00    +0.241 C 
ATOM     64  O   LEU A   7     -41.158  -8.184   5.385  0.00  0.00    -0.273 OA
ATOM     65  N   TYR A   8     -39.793  -8.191   3.577  0.00  0.00    -0.297 N 
ATOM     66  H   TYR A   8     -39.720  -8.257   2.542  0.00  0.00    +0.150 HD
BRANCH  65  67
ATOM     67  CA  TYR A   8     -38.583  -8.072   4.386  0.00  0.00    +0.153 C 
BRANCH  67  68
ATOM     68  C   TYR A   8     -38.541  -6.693   5.026  0.00  0.00    +0.241 C 
ATOM     69  O   TYR A   8     -38.363  -6.574   6.235  0.00  0.00    -0.273 OA
ATOM     70  N   MET A   9     -38.712  -5.662   4.200  0.00  0.00    -0.297 N 
ATOM     71  H   MET A   9     -38.855  -5.843   3.186  0.00  0.00    +0.150 HD
BRANCH  70  72
ATOM     72  CA  MET A   9     -38.703  -4.288   4.682  0.00  0.00    +0.149 C 
BRANCH  72  73
ATOM     73  C   MET A   9     -39.682  -4.212   5.836  0.00  0.00    +0.241 C 
ATOM     74  O   MET A   9     -39.341  -3.769   6.927  0.00  0.00    -0.273 OA
ATOM     75  N   ALA A  10     -40.907  -4.662   5.558  0.00  0.00    -0.298 N 
ATOM     76  H   ALA A  10     -41.055  -5.176   4.666  0.00  0.00    +0.150 HD
BRANCH  75  77
ATOM     77  CA  ALA A  10     -42.048  -4.468   6.443  0.00  0.00    +0.137 C 
ATOM     78  CB  ALA A  10     -43.310  -5.052   5.818  0.00  0.00    +0.030 C 
BRANCH  77  79
ATOM     79  C   ALA A  10     -41.800  -5.120   7.783  0.00  0.00    +0.227 C 
ATOM     80  O   ALA A  10     -42.270  -4.638   8.805  0.00  0.00    -0.286 OA
ENDBRANCH  77  79
ENDBRANCH  75  77
ENDBRANCH  72  73
BRANCH  72  81
ATOM     81  CB  MET A   9     -39.168  -3.322   3.584  0.00  0.00    +0.041 C 
BRANCH  81  82
ATOM     82  CG  MET A   9     -38.166  -2.321   3.119  0.00  0.00    +0.060 C 
BRANCH  82  83
ATOM     83  SD  MET A   9     -36.982  -2.958   1.923  0.00  0.00    -0.139 S 
ATOM     84  CE  MET A   9     -35.830  -3.517   3.109  0.00  0.00    +0.069 C 
ENDBRANCH  82  83
ENDBRANCH  81  82
ENDBRANCH  72  81
ENDBRANCH  70  72
ENDBRANCH  67  68
BRANCH  67  85
ATOM     85  CB  TYR A   8     -37.301  -8.316   3.572  0.00  0.00    +0.055 C 
BRANCH  85  86
ATOM     86  CG  TYR A   8     -36.072  -8.565   4.437  0.00  0.00    -0.020 A 
ATOM     87  CD2 TYR A   8     -35.865  -9.803   5.069  0.00  0.00    -0.001 A 
ATOM     88  CE2 TYR A   8     -34.723 -10.030   5.856  0.00  0.00    +0.036 A 
ATOM     89  CZ  TYR A   8     -33.784  -9.012   6.017  0.00  0.00    +0.134 A 
ATOM     90  CE1 TYR A   8     -33.982  -7.785   5.398  0.00  0.00    +0.036 A 
ATOM     91  CD1 TYR A   8     -35.118  -7.574   4.623  0.00  0.00    -0.001 A 
BRANCH  89  92
ATOM     92  OH  TYR A   8     -32.654  -9.203   6.802  0.00  0.00    -0.506 OA
ATOM     93  HH  TYR A   8     -31.843  -9.073   6.249  0.00  0.00    +0.292 HD
ENDBRANCH  89  92
ENDBRANCH  85  86
ENDBRANCH  67  85
ENDBRANCH  65  67
ENDBRANCH  62  63
BRANCH  62  94
ATOM     94  CB  LEU A   7     -42.438  -9.801   2.972  0.00  0.00    +0.029 C 
BRANCH  94  95
ATOM     95  CG  LEU A   7     -43.877 -10.284   2.995  0.00  0.00    +0.002 C 
ATOM     96  CD2 LEU A   7     -44.836  -9.132   2.901  0.00  0.00    +0.000 C 
ATOM     97  CD1 LEU A   7     -44.068 -11.284   1.874  0.00  0.00    +0.000 C 
ENDBRANCH  94  95
ENDBRANCH  62  94
ENDBRANCH  60  62
ENDBRANCH  57  58
BRANCH  57  98
ATOM     98  CB  GLU A   6     -42.904  -5.612  -0.163  0.00  0.00    +0.041 C 
BRANCH  98  99
ATOM     99  CG  GLU A   6     -42.785  -5.011  -1.551  0.00  0.00    +0.116 C 
BRANCH  99 100
ATOM    100  CD  GLU A   6     -43.912  -4.049  -1.868  0.00  0.00    +0.365 C 
ATOM    101  OE2 GLU A   6     -44.231  -3.199  -1.011  0.00  0.00    -0.246 OA
ATOM    102  OE1 GLU A   6     -44.479  -4.142  -2.975  0.00  0.00    -0.246 OA
ENDBRANCH  99 100
ENDBRANCH  98  99
ENDBRANCH  57  98
ENDBRANCH  55  57
ENDBRANCH   1  53
BRANCH   1 103
ATOM    103  CB  ASN A   5     -38.010  -6.751  -1.764  0.00  0.00    +0.114 C 
BRANCH 103 104
ATOM    104  CG  ASN A   5     -36.896  -7.445  -2.472  0.00  0.00    +0.222 C 
ATOM    105  OD1 ASN A   5     -36.331  -8.383  -1.932  0.00  0.00    -0.275 OA
ATOM    106  ND2 ASN A   5     -36.574  -7.007  -3.680  0.00  0.00    -0.329 N 
ATOM    107 HD21 ASN A   5     -37.087  -6.203  -4.096  0.00  0.00    +0.145 HD
ATOM    108 HD22 ASN A   5     -35.808  -7.467  -4.213  0.00  0.00    +0.145 HD
ENDBRANCH 103 104
ENDBRANCH   1 103
TORSDOF 44
REMARK  Name = ../refined-set-2016/3v78/3v78_pocket.pdb
REMARK  217 active torsions:
REMARK  status: ('A' for Active; 'I' for Inactive)
REMARK    1  A    between atoms: _1  and  _3
REMARK    2  A    between atoms: _3  and  _4
REMARK    3  A    between atoms: _7  and  _9
REMARK    4  A    between atoms: _9  and  _10
REMARK    5  A    between atoms: _13  and  _15
REMARK    6  A    between atoms: _15  and  _16
REMARK    7  A    between atoms: _15  and  _18
REMARK    8  A    between atoms: _18  and  _19
REMARK    9  A    between atoms: _24  and  _26
REMARK   10  A    between atoms: _26  and  _27
REMARK   11  A    between atoms: _30  and  _32
REMARK   12  A    between atoms: _32  and  _33
REMARK   13  A    between atoms: _32  and  _35
REMARK   14  A    between atoms: _35  and  _36
REMARK   15  A    between atoms: _38  and  _40
REMARK   16  A    between atoms: _40  and  _41
REMARK   17  A    between atoms: _44  and  _46
REMARK   18  A    between atoms: _46  and  _47
REMARK   19  A    between atoms: _46  and  _49
REMARK   20  A    between atoms: _49  and  _50
REMARK   21  A    between atoms: _53  and  _55
REMARK   22  A    between atoms: _55  and  _56
REMARK   23  A    between atoms: _55  and  _58
REMARK   24  A    between atoms: _58  and  _59
REMARK   25  A    between atoms: _62  and  _64
REMARK   26  A    between atoms: _64  and  _65
REMARK   27  A    between atoms: _64  and  _67
REMARK   28  A    between atoms: _67  and  _68
REMARK   29  A    between atoms: _71  and  _73
REMARK   30  A    between atoms: _73  and  _74
REMARK   31  A    between atoms: _77  and  _79
REMARK   32  A    between atoms: _79  and  _80
REMARK   33  A    between atoms: _79  and  _82
REMARK   34  A    between atoms: _82  and  _83
REMARK   35  A    between atoms: _83  and  _84
REMARK   36  A    between atoms: _89  and  _91
REMARK   37  A    between atoms: _91  and  _92
REMARK   38  A    between atoms: _91  and  _94
REMARK   39  A    between atoms: _94  and  _95
REMARK   40  A    between atoms: _105  and  _107
REMARK   41  A    between atoms: _107  and  _108
REMARK   42  A    between atoms: _107  and  _110
REMARK   43  A    between atoms: _110  and  _111
REMARK   44  A    between atoms: _114  and  _116
REMARK   45  A    between atoms: _116  and  _117
REMARK   46  A    between atoms: _120  and  _122
REMARK   47  A    between atoms: _122  and  _123
REMARK   48  A    between atoms: _122  and  _125
REMARK   49  A    between atoms: _125  and  _126
REMARK   50  A    between atoms: _129  and  _131
REMARK   51  A    between atoms: _131  and  _132
REMARK   52  A    between atoms: _131  and  _134
REMARK   53  A    between atoms: _134  and  _135
REMARK   54  A    between atoms: _138  and  _140
REMARK   55  A    between atoms: _140  and  _141
REMARK   56  A    between atoms: _140  and  _143
REMARK   57  A    between atoms: _143  and  _144
REMARK   58  A    between atoms: _147  and  _149
REMARK   59  A    between atoms: _149  and  _150
REMARK   60  A    between atoms: _149  and  _152
REMARK   61  A    between atoms: _155  and  _157
REMARK   62  A    between atoms: _157  and  _158
REMARK   63  A    between atoms: _157  and  _160
REMARK   64  A    between atoms: _160  and  _161
REMARK   65  A    between atoms: _166  and  _167
REMARK   66  A    between atoms: _169  and  _171
REMARK   67  A    between atoms: _171  and  _172
REMARK   68  A    between atoms: _171  and  _174
REMARK   69  A    between atoms: _174  and  _175
REMARK   70  A    between atoms: _178  and  _180
REMARK   71  A    between atoms: _180  and  _181
REMARK   72  A    between atoms: _180  and  _183
REMARK   73  A    between atoms: _183  and  _184
REMARK   74  A    between atoms: _189  and  _190
REMARK   75  A    between atoms: _192  and  _194
REMARK   76  A    between atoms: _194  and  _195
REMARK   77  A    between atoms: _194  and  _197
REMARK   78  A    between atoms: _197  and  _198
REMARK   79  A    between atoms: _198  and  _199
REMARK   80  A    between atoms: _199  and  _200
REMARK   81  A    between atoms: _209  and  _211
REMARK   82  A    between atoms: _211  and  _212
REMARK   83  A    between atoms: _211  and  _214
REMARK   84  A    between atoms: _214  and  _215
REMARK   85  A    between atoms: _218  and  _220
REMARK   86  A    between atoms: _220  and  _221
REMARK   87  A    between atoms: _220  and  _223
REMARK   88  A    between atoms: _223  and  _224
REMARK   89  A    between atoms: _227  and  _229
REMARK   90  A    between atoms: _229  and  _230
REMARK   91  A    between atoms: _229  and  _232
REMARK   92  A    between atoms: _232  and  _233
REMARK   93  A    between atoms: _238  and  _240
REMARK   94  A    between atoms: _240  and  _241
REMARK   95  A    between atoms: _240  and  _243
REMARK   96  A    between atoms: _243  and  _244
REMARK   97  A    between atoms: _244  and  _245
REMARK   98  A    between atoms: _248  and  _250
REMARK   99  A    between atoms: _250  and  _251
REMARK  100  A    between atoms: _250  and  _253
REMARK  101  A    between atoms: _253  and  _254
REMARK  102  A    between atoms: _257  and  _259
REMARK  103  A    between atoms: _259  and  _260
REMARK  104  A    between atoms: _259  and  _262
REMARK  105  A    between atoms: _262  and  _263
REMARK  106  A    between atoms: _268  and  _269
REMARK  107  A    between atoms: _271  and  _273
REMARK  108  A    between atoms: _273  and  _274
REMARK  109  A    between atoms: _273  and  _276
REMARK  110  A    between atoms: _276  and  _277
REMARK  111  A    between atoms: _277  and  _278
REMARK  112  A    between atoms: _280  and  _282
REMARK  113  A    between atoms: _282  and  _283
REMARK  114  A    between atoms: _286  and  _288
REMARK  115  A    between atoms: _288  and  _289
REMARK  116  A    between atoms: _288  and  _291
REMARK  117  A    between atoms: _291  and  _292
REMARK  118  A    between atoms: _295  and  _297
REMARK  119  A    between atoms: _297  and  _298
REMARK  120  A    between atoms: _301  and  _303
REMARK  121  A    between atoms: _303  and  _304
REMARK  122  A    between atoms: _303  and  _306
REMARK  123  A    between atoms: _306  and  _307
REMARK  124  A    between atoms: _307  and  _308
REMARK  125  A    between atoms: _308  and  _309
REMARK  126  A    between atoms: _318  and  _320
REMARK  127  A    between atoms: _320  and  _321
REMARK  128  A    between atoms: _320  and  _323
REMARK  129  A    between atoms: _323  and  _324
REMARK  130  A    between atoms: _327  and  _329
REMARK  131  A    between atoms: _329  and  _330
REMARK  132  A    between atoms: _329  and  _332
REMARK  133  A    between atoms: _332  and  _333
REMARK  134  A    between atoms: _344  and  _345
REMARK  135  A    between atoms: _350  and  _352
REMARK  136  A    between atoms: _352  and  _353
REMARK  137  A    between atoms: _355  and  _357
REMARK  138  A    between atoms: _357  and  _358
REMARK  139  A    between atoms: _357  and  _360
REMARK  140  A    between atoms: _360  and  _361
REMARK  141  A    between atoms: _364  and  _366
REMARK  142  A    between atoms: _366  and  _367
REMARK  143  A    between atoms: _366  and  _369
REMARK  144  A    between atoms: _372  and  _374
REMARK  145  A    between atoms: _374  and  _375
REMARK  146  A    between atoms: _374  and  _377
REMARK  147  A    between atoms: _377  and  _378
REMARK  148  A    between atoms: _381  and  _383
REMARK  149  A    between atoms: _383  and  _384
REMARK  150  A    between atoms: _383  and  _386
REMARK  151  A    between atoms: _389  and  _391
REMARK  152  A    between atoms: _391  and  _392
REMARK  153  A    between atoms: _391  and  _394
REMARK  154  A    between atoms: _394  and  _395
REMARK  155  A    between atoms: _401  and  _403
REMARK  156  A    between atoms: _403  and  _404
REMARK  157  A    between atoms: _403  and  _406
REMARK  158  A    between atoms: _406  and  _407
REMARK  159  A    between atoms: _413  and  _415
REMARK  160  A    between atoms: _415  and  _416
REMARK  161  A    between atoms: _415  and  _418
REMARK  162  A    between atoms: _418  and  _419
REMARK  163  A    between atoms: _422  and  _424
REMARK  164  A    between atoms: _424  and  _425
REMARK  165  A    between atoms: _427  and  _429
REMARK  166  A    between atoms: _429  and  _430
REMARK  167  A    between atoms: _433  and  _435
REMARK  168  A    between atoms: _435  and  _436
REMARK  169  A    between atoms: _435  and  _438
REMARK  170  A    between atoms: _438  and  _439
REMARK  171  A    between atoms: _442  and  _444
REMARK  172  A    between atoms: _444  and  _445
REMARK  173  A    between atoms: _444  and  _447
REMARK  174  A    between atoms: _447  and  _448
REMARK  175  A    between atoms: _451  and  _453
REMARK  176  A    between atoms: _453  and  _454
REMARK  177  A    between atoms: _453  and  _456
REMARK  178  A    between atoms: _456  and  _457
REMARK  179  A    between atoms: _462  and  _464
REMARK  180  A    between atoms: _464  and  _465
REMARK  181  A    between atoms: _468  and  _470
REMARK  182  A    between atoms: _470  and  _471
REMARK  183  A    between atoms: _470  and  _473
REMARK  184  A    between atoms: _473  and  _474
REMARK  185  A    between atoms: _477  and  _479
REMARK  186  A    between atoms: _479  and  _480
REMARK  187  A    between atoms: _479  and  _482
REMARK  188  A    between atoms: _482  and  _483
REMARK  189  A    between atoms: _486  and  _488
REMARK  190  A    between atoms: _488  and  _489
REMARK  191  A    between atoms: _488  and  _491
REMARK  192  A    between atoms: _491  and  _492
REMARK  193  A    between atoms: _492  and  _493
REMARK  194  A    between atoms: _495  and  _497
REMARK  195  A    between atoms: _497  and  _498
REMARK  196  A    between atoms: _501  and  _503
REMARK  197  A    between atoms: _503  and  _504
REMARK  198  A    between atoms: _503  and  _506
REMARK  199  A    between atoms: _506  and  _507
REMARK  200  A    between atoms: _512  and  _514
REMARK  201  A    between atoms: _514  and  _515
REMARK  202  A    between atoms: _514  and  _517
REMARK  203  A    between atoms: _517  and  _518
REMARK  204  A    between atoms: _521  and  _523
REMARK  205  A    between atoms: _523  and  _524
REMARK  206  A    between atoms: _526  and  _528
REMARK  207  A    between atoms: _528  and  _529
REMARK  208  A    between atoms: _528  and  _531
REMARK  209  A    between atoms: _531  and  _532
REMARK  210  A    between atoms: _535  and  _537
REMARK  211  A    between atoms: _537  and  _538
REMARK  212  A    between atoms: _537  and  _540
REMARK  213  A    between atoms: _540  and  _541
REMARK  214  A    between atoms: _546  and  _548
REMARK  215  A    between atoms: _548  and  _549
REMARK  216  A    between atoms: _548  and  _551
REMARK  217  A    between atoms: _551  and  _552
REMARK                            x       y       z     vdW  Elec       q    Type
REMARK                         _______ _______ _______ _____ _____    ______ ____
ROOT
ATOM      1  C   ARG A   3     -34.352 -15.332   8.673  0.00  0.00    +0.241 C 
ATOM      2  O   ARG A   3     -33.140 -15.515   8.795  0.00  0.00    -0.273 OA
ATOM      3  N   LEU A   4     -35.120 -16.073   7.874  0.00  0.00    -0.297 N 
ATOM      4  H   LEU A   4     -36.145 -15.897   7.845  0.00  0.00    +0.150 HD
ENDROOT
BRANCH   3   5
ATOM      5  CA  LEU A   4     -34.553 -17.126   7.039  0.00  0.00    +0.149 C 
BRANCH   5   6
ATOM      6  C   LEU A   4     -33.379 -16.597   6.224  0.00  0.00    +0.241 C 
ATOM      7  N   TRP A   5     -33.402 -15.305   5.901  0.00  0.00    -0.297 N 
ATOM      8  H   TRP A   5     -34.181 -14.706   6.242  0.00  0.00    +0.150 HD
ATOM      9  O   LEU A   4     -32.476 -17.355   5.878  0.00  0.00    -0.273 OA
BRANCH   7  10
ATOM     10  CA  TRP A   5     -32.349 -14.716   5.074  0.00  0.00    +0.153 C 
BRANCH  10  11
ATOM     11  C   TRP A   5     -31.037 -14.521   5.846  0.00  0.00    +0.244 C 
ATOM     12  N   PRO A   6     -31.040 -13.660   6.882  0.00  0.00    -0.273 N 
ATOM     13  CA  PRO A   6     -29.834 -13.480   7.703  0.00  0.00    +0.140 C 
ATOM     14  CB  PRO A   6     -30.278 -12.499   8.801  0.00  0.00    +0.030 C 
ATOM     15  CG  PRO A   6     -31.791 -12.424   8.721  0.00  0.00    +0.024 C 
ATOM     16  CD  PRO A   6     -32.142 -12.768   7.297  0.00  0.00    +0.094 C 
ATOM     17  O   TRP A   5     -30.039 -15.136   5.503  0.00  0.00    -0.273 OA
BRANCH  13  18
ATOM     18  C   PRO A   6     -29.351 -14.788   8.333  0.00  0.00    +0.227 C 
ATOM     19  O   PRO A   6     -28.165 -15.106   8.258  0.00  0.00    -0.286 OA
ENDBRANCH  13  18
ENDBRANCH  10  11
BRANCH  10  20
ATOM     20  CB  TRP A   5     -32.809 -13.416   4.382  0.00  0.00    +0.057 C 
BRANCH  20  21
ATOM     21  CG  TRP A   5     -31.681 -12.573   3.883  0.00  0.00    -0.002 A 
ATOM     22  CD1 TRP A   5     -31.355 -11.301   4.290  0.00  0.00    +0.068 A 
ATOM     23  NE1 TRP A   5     -30.253 -10.856   3.607  0.00  0.00    -0.352 N 
ATOM     24  HE1 TRP A   5     -29.805  -9.925   3.723  0.00  0.00    +0.166 HD
ATOM     25  CE2 TRP A   5     -29.837 -11.841   2.743  0.00  0.00    +0.056 A 
ATOM     26  CZ2 TRP A   5     -28.766 -11.858   1.850  0.00  0.00    +0.017 A 
ATOM     27  CH2 TRP A   5     -28.580 -12.995   1.113  0.00  0.00    +0.001 A 
ATOM     28  CZ3 TRP A   5     -29.437 -14.104   1.237  0.00  0.00    +0.000 A 
ATOM     29  CE3 TRP A   5     -30.496 -14.089   2.122  0.00  0.00    +0.001 A 
ATOM     30  CD2 TRP A   5     -30.707 -12.941   2.899  0.00  0.00    +0.013 A 
ENDBRANCH  20  21
ENDBRANCH  10  20
ENDBRANCH   7  10
ENDBRANCH   5   6
BRANCH   5  31
ATOM     31  CB  LEU A   4     -35.595 -17.702   6.068  0.00  0.00    +0.029 C 
BRANCH  31  32
ATOM     32  CG  LEU A   4     -36.844 -18.409   6.589  0.00  0.00    +0.002 C 
ATOM     33  CD2 LEU A   4     -36.501 -19.496   7.613  0.00  0.00    +0.000 C 
ATOM     34  CD1 LEU A   4     -37.639 -18.989   5.408  0.00  0.00    +0.000 C 
ENDBRANCH  31  32
ENDBRANCH   5  31
ENDBRANCH   3   5
BRANCH   1  35
ATOM     35  CA  ARG A   3     -35.041 -14.206   9.450  0.00  0.00    +0.149 C 
BRANCH  35  37
ATOM     36  C   ALA A   2     -36.345 -13.150   7.661  0.00  0.00    +0.241 C 
ATOM     37  N   ARG A   3     -36.295 -13.708   8.868  0.00  0.00    -0.297 N 
ATOM     38  H   ARG A   3     -37.173 -13.795   9.418  0.00  0.00    +0.150 HD
ATOM     39  O   ALA A   2     -35.381 -13.103   6.900  0.00  0.00    -0.273 OA
BRANCH  36  40
ATOM     40  CA  ALA A   2     -37.690 -12.576   7.239  0.00  0.00    +0.149 C 
ATOM     41  CB  ALA A   2     -37.897 -11.185   7.825  0.00  0.00    +0.031 C 
BRANCH  40  43
ATOM     42  C   LEU A   1     -38.881 -14.673   7.139  0.00  0.00    +0.238 C 
ATOM     43  N   ALA A   2     -38.788 -13.443   7.621  0.00  0.00    -0.297 N 
ATOM     44  H   ALA A   2     -39.511 -13.094   8.282  0.00  0.00    +0.150 HD
ATOM     45  O   LEU A   1     -38.008 -15.167   6.429  0.00  0.00    -0.274 OA
BRANCH  42  46
ATOM     46  CA  LEU A   1     -40.154 -15.443   7.502  0.00  0.00    +0.145 C 
BRANCH  46  47
ATOM     47  N   LEU A   1     -40.400 -15.332   8.941  0.00  0.00    -0.238 NA
ATOM     48  H   LEU A   1     -41.253 -14.842   9.280  0.00  0.00    +0.142 HD
ENDBRANCH  46  47
BRANCH  46  49
ATOM     49  CB  LEU A   1     -41.317 -14.866   6.691  0.00  0.00    +0.026 C 
BRANCH  49  50
ATOM     50  CG  LEU A   1     -40.991 -14.696   5.191  0.00  0.00    +0.002 C 
ATOM     51  CD2 LEU A   1     -41.901 -13.698   4.478  0.00  0.00    +0.000 C 
ATOM     52  CD1 LEU A   1     -41.009 -16.049   4.467  0.00  0.00    +0.000 C 
ENDBRANCH  49  50
ENDBRANCH  46  49
ENDBRANCH  42  46
ENDBRANCH  40  43
ENDBRANCH  36  40
ENDBRANCH  35  37
BRANCH  35  53
ATOM     53  CB  ARG A   3     -35.255 -14.612  10.909  0.00  0.00    +0.033 C 
BRANCH  53  54
ATOM     54  CG  ARG A   3     -35.402 -13.393  11.791  0.00  0.00    +0.045 C 
BRANCH  54  55
ATOM     55  CD  ARG A   3     -35.779 -13.709  13.219  0.00  0.00    +0.174 C 
BRANCH  55  56
ATOM     56  NE  ARG A   3     -35.904 -12.450  13.943  0.00  0.00    -0.265 N 
ATOM     57  CZ  ARG A   3     -36.108 -12.332  15.251  0.00  0.00    +0.342 C 
ATOM     58  NH2 ARG A   3     -36.218 -13.410  16.021  0.00  0.00    -0.292 N 
ATOM     59 HH21 ARG A   3     -36.378 -13.305  17.043  0.00  0.00    +0.255 HD
ATOM     60 HH22 ARG A   3     -36.145 -14.359  15.601  0.00  0.00    +0.255 HD
ATOM     61  NH1 ARG A   3     -36.197 -11.121  15.781  0.00  0.00    -0.292 N 
ATOM     62 HH11 ARG A   3     -36.356 -11.011  16.803  0.00  0.00    +0.255 HD
ATOM     63 HH12 ARG A   3     -36.107 -10.280  15.175  0.00  0.00    +0.255 HD
ATOM     64  HE  ARG A   3     -35.827 -11.572  13.391  0.00  0.00    +0.259 HD
ENDBRANCH  55  56
ENDBRANCH  54  55
ENDBRANCH  53  54
ENDBRANCH  35  53
ENDBRANCH   1  35
TORSDOF 21
REMARK  Name = ../refined-set-2016/3v78/3v78_pocket.pdb
REMARK  217 active torsions:
REMARK  status: ('A' for Active; 'I' for Inactive)
REMARK    1  A    between atoms: _1  and  _3
REMARK    2  A    between atoms: _3  and  _4
REMARK    3  A    between atoms: _7  and  _9
REMARK    4  A    between atoms: _9  and  _10
REMARK    5  A    between atoms: _13  and  _15
REMARK    6  A    between atoms: _15  and  _16
REMARK    7  A    between atoms: _15  and  _18
REMARK    8  A    between atoms: _18  and  _19
REMARK    9  A    between atoms: _24  and  _26
REMARK   10  A    between atoms: _26  and  _27
REMARK   11  A    between atoms: _30  and  _32
REMARK   12  A    between atoms: _32  and  _33
REMARK   13  A    between atoms: _32  and  _35
REMARK   14  A    between atoms: _35  and  _36
REMARK   15  A    between atoms: _38  and  _40
REMARK   16  A    between atoms: _40  and  _41
REMARK   17  A    between atoms: _44  and  _46
REMARK   18  A    between atoms: _46  and  _47
REMARK   19  A    between atoms: _46  and  _49
REMARK   20  A    between atoms: _49  and  _50
REMARK   21  A    between atoms: _53  and  _55
REMARK   22  A    between atoms: _55  and  _56
REMARK   23  A    between atoms: _55  and  _58
REMARK   24  A    between atoms: _58  and  _59
REMARK   25  A    between atoms: _62  and  _64
REMARK   26  A    between atoms: _64  and  _65
REMARK   27  A    between atoms: _64  and  _67
REMARK   28  A    between atoms: _67  and  _68
REMARK   29  A    between atoms: _71  and  _73
REMARK   30  A    between atoms: _73  and  _74
REMARK   31  A    between atoms: _77  and  _79
REMARK   32  A    between atoms: _79  and  _80
REMARK   33  A    between atoms: _79  and  _82
REMARK   34  A    between atoms: _82  and  _83
REMARK   35  A    between atoms: _83  and  _84
REMARK   36  A    between atoms: _89  and  _91
REMARK   37  A    between atoms: _91  and  _92
REMARK   38  A    between atoms: _91  and  _94
REMARK   39  A    between atoms: _94  and  _95
REMARK   40  A    between atoms: _105  and  _107
REMARK   41  A    between atoms: _107  and  _108
REMARK   42  A    between atoms: _107  and  _110
REMARK   43  A    between atoms: _110  and  _111
REMARK   44  A    between atoms: _114  and  _116
REMARK   45  A    between atoms: _116  and  _117
REMARK   46  A    between atoms: _120  and  _122
REMARK   47  A    between atoms: _122  and  _123
REMARK   48  A    between atoms: _122  and  _125
REMARK   49  A    between atoms: _125  and  _126
REMARK   50  A    between atoms: _129  and  _131
REMARK   51  A    between atoms: _131  and  _132
REMARK   52  A    between atoms: _131  and  _134
REMARK   53  A    between atoms: _134  and  _135
REMARK   54  A    between atoms: _138  and  _140
REMARK   55  A    between atoms: _140  and  _141
REMARK   56  A    between atoms: _140  and  _143
REMARK   57  A    between atoms: _143  and  _144
REMARK   58  A    between atoms: _147  and  _149
REMARK   59  A    between atoms: _149  and  _150
REMARK   60  A    between atoms: _149  and  _152
REMARK   61  A    between atoms: _155  and  _157
REMARK   62  A    between atoms: _157  and  _158
REMARK   63  A    between atoms: _157  and  _160
REMARK   64  A    between atoms: _160  and  _161
REMARK   65  A    between atoms: _166  and  _167
REMARK   66  A    between atoms: _169  and  _171
REMARK   67  A    between atoms: _171  and  _172
REMARK   68  A    between atoms: _171  and  _174
REMARK   69  A    between atoms: _174  and  _175
REMARK   70  A    between atoms: _178  and  _180
REMARK   71  A    between atoms: _180  and  _181
REMARK   72  A    between atoms: _180  and  _183
REMARK   73  A    between atoms: _183  and  _184
REMARK   74  A    between atoms: _189  and  _190
REMARK   75  A    between atoms: _192  and  _194
REMARK   76  A    between atoms: _194  and  _195
REMARK   77  A    between atoms: _194  and  _197
REMARK   78  A    between atoms: _197  and  _198
REMARK   79  A    between atoms: _198  and  _199
REMARK   80  A    between atoms: _199  and  _200
REMARK   81  A    between atoms: _209  and  _211
REMARK   82  A    between atoms: _211  and  _212
REMARK   83  A    between atoms: _211  and  _214
REMARK   84  A    between atoms: _214  and  _215
REMARK   85  A    between atoms: _218  and  _220
REMARK   86  A    between atoms: _220  and  _221
REMARK   87  A    between atoms: _220  and  _223
REMARK   88  A    between atoms: _223  and  _224
REMARK   89  A    between atoms: _227  and  _229
REMARK   90  A    between atoms: _229  and  _230
REMARK   91  A    between atoms: _229  and  _232
REMARK   92  A    between atoms: _232  and  _233
REMARK   93  A    between atoms: _238  and  _240
REMARK   94  A    between atoms: _240  and  _241
REMARK   95  A    between atoms: _240  and  _243
REMARK   96  A    between atoms: _243  and  _244
REMARK   97  A    between atoms: _244  and  _245
REMARK   98  A    between atoms: _248  and  _250
REMARK   99  A    between atoms: _250  and  _251
REMARK  100  A    between atoms: _250  and  _253
REMARK  101  A    between atoms: _253  and  _254
REMARK  102  A    between atoms: _257  and  _259
REMARK  103  A    between atoms: _259  and  _260
REMARK  104  A    between atoms: _259  and  _262
REMARK  105  A    between atoms: _262  and  _263
REMARK  106  A    between atoms: _268  and  _269
REMARK  107  A    between atoms: _271  and  _273
REMARK  108  A    between atoms: _273  and  _274
REMARK  109  A    between atoms: _273  and  _276
REMARK  110  A    between atoms: _276  and  _277
REMARK  111  A    between atoms: _277  and  _278
REMARK  112  A    between atoms: _280  and  _282
REMARK  113  A    between atoms: _282  and  _283
REMARK  114  A    between atoms: _286  and  _288
REMARK  115  A    between atoms: _288  and  _289
REMARK  116  A    between atoms: _288  and  _291
REMARK  117  A    between atoms: _291  and  _292
REMARK  118  A    between atoms: _295  and  _297
REMARK  119  A    between atoms: _297  and  _298
REMARK  120  A    between atoms: _301  and  _303
REMARK  121  A    between atoms: _303  and  _304
REMARK  122  A    between atoms: _303  and  _306
REMARK  123  A    between atoms: _306  and  _307
REMARK  124  A    between atoms: _307  and  _308
REMARK  125  A    between atoms: _308  and  _309
REMARK  126  A    between atoms: _318  and  _320
REMARK  127  A    between atoms: _320  and  _321
REMARK  128  A    between atoms: _320  and  _323
REMARK  129  A    between atoms: _323  and  _324
REMARK  130  A    between atoms: _327  and  _329
REMARK  131  A    between atoms: _329  and  _330
REMARK  132  A    between atoms: _329  and  _332
REMARK  133  A    between atoms: _332  and  _333
REMARK  134  A    between atoms: _344  and  _345
REMARK  135  A    between atoms: _350  and  _352
REMARK  136  A    between atoms: _352  and  _353
REMARK  137  A    between atoms: _355  and  _357
REMARK  138  A    between atoms: _357  and  _358
REMARK  139  A    between atoms: _357  and  _360
REMARK  140  A    between atoms: _360  and  _361
REMARK  141  A    between atoms: _364  and  _366
REMARK  142  A    between atoms: _366  and  _367
REMARK  143  A    between atoms: _366  and  _369
REMARK  144  A    between atoms: _372  and  _374
REMARK  145  A    between atoms: _374  and  _375
REMARK  146  A    between atoms: _374  and  _377
REMARK  147  A    between atoms: _377  and  _378
REMARK  148  A    between atoms: _381  and  _383
REMARK  149  A    between atoms: _383  and  _384
REMARK  150  A    between atoms: _383  and  _386
REMARK  151  A    between atoms: _389  and  _391
REMARK  152  A    between atoms: _391  and  _392
REMARK  153  A    between atoms: _391  and  _394
REMARK  154  A    between atoms: _394  and  _395
REMARK  155  A    between atoms: _401  and  _403
REMARK  156  A    between atoms: _403  and  _404
REMARK  157  A    between atoms: _403  and  _406
REMARK  158  A    between atoms: _406  and  _407
REMARK  159  A    between atoms: _413  and  _415
REMARK  160  A    between atoms: _415  and  _416
REMARK  161  A    between atoms: _415  and  _418
REMARK  162  A    between atoms: _418  and  _419
REMARK  163  A    between atoms: _422  and  _424
REMARK  164  A    between atoms: _424  and  _425
REMARK  165  A    between atoms: _427  and  _429
REMARK  166  A    between atoms: _429  and  _430
REMARK  167  A    between atoms: _433  and  _435
REMARK  168  A    between atoms: _435  and  _436
REMARK  169  A    between atoms: _435  and  _438
REMARK  170  A    between atoms: _438  and  _439
REMARK  171  A    between atoms: _442  and  _444
REMARK  172  A    between atoms: _444  and  _445
REMARK  173  A    between atoms: _444  and  _447
REMARK  174  A    between atoms: _447  and  _448
REMARK  175  A    between atoms: _451  and  _453
REMARK  176  A    between atoms: _453  and  _454
REMARK  177  A    between atoms: _453  and  _456
REMARK  178  A    between atoms: _456  and  _457
REMARK  179  A    between atoms: _462  and  _464
REMARK  180  A    between atoms: _464  and  _465
REMARK  181  A    between atoms: _468  and  _470
REMARK  182  A    between atoms: _470  and  _471
REMARK  183  A    between atoms: _470  and  _473
REMARK  184  A    between atoms: _473  and  _474
REMARK  185  A    between atoms: _477  and  _479
REMARK  186  A    between atoms: _479  and  _480
REMARK  187  A    between atoms: _479  and  _482
REMARK  188  A    between atoms: _482  and  _483
REMARK  189  A    between atoms: _486  and  _488
REMARK  190  A    between atoms: _488  and  _489
REMARK  191  A    between atoms: _488  and  _491
REMARK  192  A    between atoms: _491  and  _492
REMARK  193  A    between atoms: _492  and  _493
REMARK  194  A    between atoms: _495  and  _497
REMARK  195  A    between atoms: _497  and  _498
REMARK  196  A    between atoms: _501  and  _503
REMARK  197  A    between atoms: _503  and  _504
REMARK  198  A    between atoms: _503  and  _506
REMARK  199  A    between atoms: _506  and  _507
REMARK  200  A    between atoms: _512  and  _514
REMARK  201  A    between atoms: _514  and  _515
REMARK  202  A    between atoms: _514  and  _517
REMARK  203  A    between atoms: _517  and  _518
REMARK  204  A    between atoms: _521  and  _523
REMARK  205  A    between atoms: _523  and  _524
REMARK  206  A    between atoms: _526  and  _528
REMARK  207  A    between atoms: _528  and  _529
REMARK  208  A    between atoms: _528  and  _531
REMARK  209  A    between atoms: _531  and  _532
REMARK  210  A    between atoms: _535  and  _537
REMARK  211  A    between atoms: _537  and  _538
REMARK  212  A    between atoms: _537  and  _540
REMARK  213  A    between atoms: _540  and  _541
REMARK  214  A    between atoms: _546  and  _548
REMARK  215  A    between atoms: _548  and  _549
REMARK  216  A    between atoms: _548  and  _551
REMARK  217  A    between atoms: _551  and  _552
REMARK                            x       y       z     vdW  Elec       q    Type
REMARK                         _______ _______ _______ _____ _____    ______ ____
ROOT
ATOM      1  C   GLY A   1     -28.145 -18.129   5.642  0.00  0.00    +0.240 C 
ATOM      2  N   LEU A   2     -27.919 -16.836   5.446  0.00  0.00    -0.298 N 
ATOM      3  H   LEU A   2     -28.625 -16.128   5.733  0.00  0.00    +0.150 HD
ATOM      4  O   GLY A   1     -27.325 -18.992   5.350  0.00  0.00    -0.274 OA
ENDROOT
BRANCH   1   5
ATOM      5  CA  GLY A   1     -29.484 -18.513   6.239  0.00  0.00    +0.169 C 
BRANCH   5   6
ATOM      6  N   GLY A   1     -29.876 -17.674   7.353  0.00  0.00    -0.236 NA
ATOM      7  H   GLY A   1     -30.687 -17.033   7.240  0.00  0.00    +0.142 HD
ENDBRANCH   5   6
ENDBRANCH   1   5
BRANCH   2   8
ATOM      8  CA  LEU A   2     -26.678 -16.424   4.828  0.00  0.00    +0.137 C 
BRANCH   8   9
ATOM      9  C   LEU A   2     -25.558 -16.629   5.831  0.00  0.00    +0.227 C 
ATOM     10  O   LEU A   2     -24.446 -17.009   5.473  0.00  0.00    -0.286 OA
ENDBRANCH   8   9
BRANCH   8  11
ATOM     11  CB  LEU A   2     -26.744 -14.967   4.381  0.00  0.00    +0.028 C 
BRANCH  11  12
ATOM     12  CG  LEU A   2     -26.091 -14.620   3.037  0.00  0.00    +0.002 C 
ATOM     13  CD2 LEU A   2     -25.348 -13.282   3.123  0.00  0.00    +0.000 C 
ATOM     14  CD1 LEU A   2     -25.181 -15.730   2.523  0.00  0.00    +0.000 C 
ENDBRANCH  11  12
ENDBRANCH   8  11
ENDBRANCH   2   8
TORSDOF 6
REMARK  Name = ../refined-set-2016/3v78/3v78_pocket.pdb
REMARK  217 active torsions:
REMARK  status: ('A' for Active; 'I' for Inactive)
REMARK    1  A    between atoms: _1  and  _3
REMARK    2  A    between atoms: _3  and  _4
REMARK    3  A    between atoms: _7  and  _9
REMARK    4  A    between atoms: _9  and  _10
REMARK    5  A    between atoms: _13  and  _15
REMARK    6  A    between atoms: _15  and  _16
REMARK    7  A    between atoms: _15  and  _18
REMARK    8  A    between atoms: _18  and  _19
REMARK    9  A    between atoms: _24  and  _26
REMARK   10  A    between atoms: _26  and  _27
REMARK   11  A    between atoms: _30  and  _32
REMARK   12  A    between atoms: _32  and  _33
REMARK   13  A    between atoms: _32  and  _35
REMARK   14  A    between atoms: _35  and  _36
REMARK   15  A    between atoms: _38  and  _40
REMARK   16  A    between atoms: _40  and  _41
REMARK   17  A    between atoms: _44  and  _46
REMARK   18  A    between atoms: _46  and  _47
REMARK   19  A    between atoms: _46  and  _49
REMARK   20  A    between atoms: _49  and  _50
REMARK   21  A    between atoms: _53  and  _55
REMARK   22  A    between atoms: _55  and  _56
REMARK   23  A    between atoms: _55  and  _58
REMARK   24  A    between atoms: _58  and  _59
REMARK   25  A    between atoms: _62  and  _64
REMARK   26  A    between atoms: _64  and  _65
REMARK   27  A    between atoms: _64  and  _67
REMARK   28  A    between atoms: _67  and  _68
REMARK   29  A    between atoms: _71  and  _73
REMARK   30  A    between atoms: _73  and  _74
REMARK   31  A    between atoms: _77  and  _79
REMARK   32  A    between atoms: _79  and  _80
REMARK   33  A    between atoms: _79  and  _82
REMARK   34  A    between atoms: _82  and  _83
REMARK   35  A    between atoms: _83  and  _84
REMARK   36  A    between atoms: _89  and  _91
REMARK   37  A    between atoms: _91  and  _92
REMARK   38  A    between atoms: _91  and  _94
REMARK   39  A    between atoms: _94  and  _95
REMARK   40  A    between atoms: _105  and  _107
REMARK   41  A    between atoms: _107  and  _108
REMARK   42  A    between atoms: _107  and  _110
REMARK   43  A    between atoms: _110  and  _111
REMARK   44  A    between atoms: _114  and  _116
REMARK   45  A    between atoms: _116  and  _117
REMARK   46  A    between atoms: _120  and  _122
REMARK   47  A    between atoms: _122  and  _123
REMARK   48  A    between atoms: _122  and  _125
REMARK   49  A    between atoms: _125  and  _126
REMARK   50  A    between atoms: _129  and  _131
REMARK   51  A    between atoms: _131  and  _132
REMARK   52  A    between atoms: _131  and  _134
REMARK   53  A    between atoms: _134  and  _135
REMARK   54  A    between atoms: _138  and  _140
REMARK   55  A    between atoms: _140  and  _141
REMARK   56  A    between atoms: _140  and  _143
REMARK   57  A    between atoms: _143  and  _144
REMARK   58  A    between atoms: _147  and  _149
REMARK   59  A    between atoms: _149  and  _150
REMARK   60  A    between atoms: _149  and  _152
REMARK   61  A    between atoms: _155  and  _157
REMARK   62  A    between atoms: _157  and  _158
REMARK   63  A    between atoms: _157  and  _160
REMARK   64  A    between atoms: _160  and  _161
REMARK   65  A    between atoms: _166  and  _167
REMARK   66  A    between atoms: _169  and  _171
REMARK   67  A    between atoms: _171  and  _172
REMARK   68  A    between atoms: _171  and  _174
REMARK   69  A    between atoms: _174  and  _175
REMARK   70  A    between atoms: _178  and  _180
REMARK   71  A    between atoms: _180  and  _181
REMARK   72  A    between atoms: _180  and  _183
REMARK   73  A    between atoms: _183  and  _184
REMARK   74  A    between atoms: _189  and  _190
REMARK   75  A    between atoms: _192  and  _194
REMARK   76  A    between atoms: _194  and  _195
REMARK   77  A    between atoms: _194  and  _197
REMARK   78  A    between atoms: _197  and  _198
REMARK   79  A    between atoms: _198  and  _199
REMARK   80  A    between atoms: _199  and  _200
REMARK   81  A    between atoms: _209  and  _211
REMARK   82  A    between atoms: _211  and  _212
REMARK   83  A    between atoms: _211  and  _214
REMARK   84  A    between atoms: _214  and  _215
REMARK   85  A    between atoms: _218  and  _220
REMARK   86  A    between atoms: _220  and  _221
REMARK   87  A    between atoms: _220  and  _223
REMARK   88  A    between atoms: _223  and  _224
REMARK   89  A    between atoms: _227  and  _229
REMARK   90  A    between atoms: _229  and  _230
REMARK   91  A    between atoms: _229  and  _232
REMARK   92  A    between atoms: _232  and  _233
REMARK   93  A    between atoms: _238  and  _240
REMARK   94  A    between atoms: _240  and  _241
REMARK   95  A    between atoms: _240  and  _243
REMARK   96  A    between atoms: _243  and  _244
REMARK   97  A    between atoms: _244  and  _245
REMARK   98  A    between atoms: _248  and  _250
REMARK   99  A    between atoms: _250  and  _251
REMARK  100  A    between atoms: _250  and  _253
REMARK  101  A    between atoms: _253  and  _254
REMARK  102  A    between atoms: _257  and  _259
REMARK  103  A    between atoms: _259  and  _260
REMARK  104  A    between atoms: _259  and  _262
REMARK  105  A    between atoms: _262  and  _263
REMARK  106  A    between atoms: _268  and  _269
REMARK  107  A    between atoms: _271  and  _273
REMARK  108  A    between atoms: _273  and  _274
REMARK  109  A    between atoms: _273  and  _276
REMARK  110  A    between atoms: _276  and  _277
REMARK  111  A    between atoms: _277  and  _278
REMARK  112  A    between atoms: _280  and  _282
REMARK  113  A    between atoms: _282  and  _283
REMARK  114  A    between atoms: _286  and  _288
REMARK  115  A    between atoms: _288  and  _289
REMARK  116  A    between atoms: _288  and  _291
REMARK  117  A    between atoms: _291  and  _292
REMARK  118  A    between atoms: _295  and  _297
REMARK  119  A    between atoms: _297  and  _298
REMARK  120  A    between atoms: _301  and  _303
REMARK  121  A    between atoms: _303  and  _304
REMARK  122  A    between atoms: _303  and  _306
REMARK  123  A    between atoms: _306  and  _307
REMARK  124  A    between atoms: _307  and  _308
REMARK  125  A    between atoms: _308  and  _309
REMARK  126  A    between atoms: _318  and  _320
REMARK  127  A    between atoms: _320  and  _321
REMARK  128  A    between atoms: _320  and  _323
REMARK  129  A    between atoms: _323  and  _324
REMARK  130  A    between atoms: _327  and  _329
REMARK  131  A    between atoms: _329  and  _330
REMARK  132  A    between atoms: _329  and  _332
REMARK  133  A    between atoms: _332  and  _333
REMARK  134  A    between atoms: _344  and  _345
REMARK  135  A    between atoms: _350  and  _352
REMARK  136  A    between atoms: _352  and  _353
REMARK  137  A    between atoms: _355  and  _357
REMARK  138  A    between atoms: _357  and  _358
REMARK  139  A    between atoms: _357  and  _360
REMARK  140  A    between atoms: _360  and  _361
REMARK  141  A    between atoms: _364  and  _366
REMARK  142  A    between atoms: _366  and  _367
REMARK  143  A    between atoms: _366  and  _369
REMARK  144  A    between atoms: _372  and  _374
REMARK  145  A    between atoms: _374  and  _375
REMARK  146  A    between atoms: _374  and  _377
REMARK  147  A    between atoms: _377  and  _378
REMARK  148  A    between atoms: _381  and  _383
REMARK  149  A    between atoms: _383  and  _384
REMARK  150  A    between atoms: _383  and  _386
REMARK  151  A    between atoms: _389  and  _391
REMARK  152  A    between atoms: _391  and  _392
REMARK  153  A    between atoms: _391  and  _394
REMARK  154  A    between atoms: _394  and  _395
REMARK  155  A    between atoms: _401  and  _403
REMARK  156  A    between atoms: _403  and  _404
REMARK  157  A    between atoms: _403  and  _406
REMARK  158  A    between atoms: _406  and  _407
REMARK  159  A    between atoms: _413  and  _415
REMARK  160  A    between atoms: _415  and  _416
REMARK  161  A    between atoms: _415  and  _418
REMARK  162  A    between atoms: _418  and  _419
REMARK  163  A    between atoms: _422  and  _424
REMARK  164  A    between atoms: _424  and  _425
REMARK  165  A    between atoms: _427  and  _429
REMARK  166  A    between atoms: _429  and  _430
REMARK  167  A    between atoms: _433  and  _435
REMARK  168  A    between atoms: _435  and  _436
REMARK  169  A    between atoms: _435  and  _438
REMARK  170  A    between atoms: _438  and  _439
REMARK  171  A    between atoms: _442  and  _444
REMARK  172  A    between atoms: _444  and  _445
REMARK  173  A    between atoms: _444  and  _447
REMARK  174  A    between atoms: _447  and  _448
REMARK  175  A    between atoms: _451  and  _453
REMARK  176  A    between atoms: _453  and  _454
REMARK  177  A    between atoms: _453  and  _456
REMARK  178  A    between atoms: _456  and  _457
REMARK  179  A    between atoms: _462  and  _464
REMARK  180  A    between atoms: _464  and  _465
REMARK  181  A    between atoms: _468  and  _470
REMARK  182  A    between atoms: _470  and  _471
REMARK  183  A    between atoms: _470  and  _473
REMARK  184  A    between atoms: _473  and  _474
REMARK  185  A    between atoms: _477  and  _479
REMARK  186  A    between atoms: _479  and  _480
REMARK  187  A    between atoms: _479  and  _482
REMARK  188  A    between atoms: _482  and  _483
REMARK  189  A    between atoms: _486  and  _488
REMARK  190  A    between atoms: _488  and  _489
REMARK  191  A    between atoms: _488  and  _491
REMARK  192  A    between atoms: _491  and  _492
REMARK  193  A    between atoms: _492  and  _493
REMARK  194  A    between atoms: _495  and  _497
REMARK  195  A    between atoms: _497  and  _498
REMARK  196  A    between atoms: _501  and  _503
REMARK  197  A    between atoms: _503  and  _504
REMARK  198  A    between atoms: _503  and  _506
REMARK  199  A    between atoms: _506  and  _507
REMARK  200  A    between atoms: _512  and  _514
REMARK  201  A    between atoms: _514  and  _515
REMARK  202  A    between atoms: _514  and  _517
REMARK  203  A    between atoms: _517  and  _518
REMARK  204  A    between atoms: _521  and  _523
REMARK  205  A    between atoms: _523  and  _524
REMARK  206  A    between atoms: _526  and  _528
REMARK  207  A    between atoms: _528  and  _529
REMARK  208  A    between atoms: _528  and  _531
REMARK  209  A    between atoms: _531  and  _532
REMARK  210  A    between atoms: _535  and  _537
REMARK  211  A    between atoms: _537  and  _538
REMARK  212  A    between atoms: _537  and  _540
REMARK  213  A    between atoms: _540  and  _541
REMARK  214  A    between atoms: _546  and  _548
REMARK  215  A    between atoms: _548  and  _549
REMARK  216  A    between atoms: _548  and  _551
REMARK  217  A    between atoms: _551  and  _552
REMARK                            x       y       z     vdW  Elec       q    Type
REMARK                         _______ _______ _______ _____ _____    ______ ____
ROOT
ATOM      1  C   ASP A   6     -29.447  -4.404   3.110  0.00  0.00    +0.241 C 
ATOM      2  N   GLY A   7     -28.365  -3.658   3.303  0.00  0.00    -0.295 N 
ATOM      3  H   GLY A   7     -27.550  -4.077   3.794  0.00  0.00    +0.150 HD
ATOM      4  O   ASP A   6     -30.448  -3.999   2.529  0.00  0.00    -0.273 OA
ENDROOT
BRANCH   1   5
ATOM      5  CA  ASP A   6     -29.381  -5.838   3.635  0.00  0.00    +0.160 C 
BRANCH   5   7
ATOM      6  C   PHE A   5     -27.717  -6.523   1.996  0.00  0.00    +0.241 C 
ATOM      7  N   ASP A   6     -28.110  -6.461   3.268  0.00  0.00    -0.297 N 
ATOM      8  H   ASP A   6     -27.503  -6.862   4.011  0.00  0.00    +0.150 HD
ATOM      9  O   PHE A   5     -28.421  -6.156   1.052  0.00  0.00    -0.273 OA
BRANCH   6  10
ATOM     10  CA  PHE A   5     -26.316  -7.076   1.733  0.00  0.00    +0.153 C 
BRANCH  10  12
ATOM     11  C   PHE A   4     -24.972  -5.381   2.847  0.00  0.00    +0.241 C 
ATOM     12  N   PHE A   5     -25.320  -6.663   2.726  0.00  0.00    -0.297 N 
ATOM     13  H   PHE A   5     -24.880  -7.376   3.342  0.00  0.00    +0.150 HD
ATOM     14  O   PHE A   4     -25.445  -4.501   2.134  0.00  0.00    -0.273 OA
BRANCH  11  15
ATOM     15  CA  PHE A   4     -23.970  -5.029   3.952  0.00  0.00    +0.153 C 
BRANCH  15  18
ATOM     16  C   VAL A   3     -25.431  -5.715   5.760  0.00  0.00    +0.241 C 
ATOM     17  O   VAL A   3     -26.338  -4.976   5.370  0.00  0.00    -0.273 OA
ATOM     18  N   PHE A   4     -24.257  -5.804   5.145  0.00  0.00    -0.297 N 
ATOM     19  H   PHE A   4     -23.529  -6.442   5.526  0.00  0.00    +0.150 HD
BRANCH  16  20
ATOM     20  CA  VAL A   3     -25.600  -6.561   7.012  0.00  0.00    +0.149 C 
BRANCH  20  22
ATOM     21  C   THR A   2     -25.754  -8.638   5.730  0.00  0.00    +0.243 C 
ATOM     22  N   VAL A   3     -25.244  -7.943   6.744  0.00  0.00    -0.297 N 
ATOM     23  H   VAL A   3     -24.560  -8.411   7.372  0.00  0.00    +0.150 HD
ATOM     24  O   THR A   2     -26.622  -8.197   4.977  0.00  0.00    -0.273 OA
BRANCH  21  25
ATOM     25  CA  THR A   2     -25.180 -10.049   5.530  0.00  0.00    +0.176 C 
BRANCH  25  27
ATOM     26  C   VAL A   1     -23.041  -9.311   4.625  0.00  0.00    +0.238 C 
ATOM     27  N   THR A   2     -23.714 -10.018   5.538  0.00  0.00    -0.295 N 
ATOM     28  H   THR A   2     -23.192 -10.552   6.262  0.00  0.00    +0.150 HD
ATOM     29  O   VAL A   1     -23.606  -8.683   3.729  0.00  0.00    -0.274 OA
BRANCH  26  30
ATOM     30  CA  VAL A   1     -21.509  -9.321   4.708  0.00  0.00    +0.145 C 
BRANCH  30  31
ATOM     31  CB  VAL A   1     -20.945 -10.596   4.015  0.00  0.00    +0.025 C 
ATOM     32  CG2 VAL A   1     -19.491 -10.405   3.633  0.00  0.00    +0.002 C 
ATOM     33  CG1 VAL A   1     -21.777 -10.961   2.791  0.00  0.00    +0.002 C 
ENDBRANCH  30  31
BRANCH  30  34
ATOM     34  N   VAL A   1     -21.032  -9.190   6.082  0.00  0.00    -0.238 NA
ATOM     35  H   VAL A   1     -20.531  -9.984   6.530  0.00  0.00    +0.142 HD
ENDBRANCH  30  34
ENDBRANCH  26  30
ENDBRANCH  25  27
BRANCH  25  36
ATOM     36  CB  THR A   2     -25.763 -11.000   6.609  0.00  0.00    +0.137 C 
ATOM     37  CG2 THR A   2     -25.227 -12.414   6.440  0.00  0.00    +0.034 C 
BRANCH  36  38
ATOM     38  OG1 THR A   2     -25.382 -10.527   7.905  0.00  0.00    -0.382 OA
ATOM     39  HG1 THR A   2     -24.394 -10.512   7.972  0.00  0.00    +0.210 HD
ENDBRANCH  36  38
ENDBRANCH  25  36
ENDBRANCH  21  25
ENDBRANCH  20  22
BRANCH  20  40
ATOM     40  CB  VAL A   3     -24.727  -5.946   8.130  0.00  0.00    +0.027 C 
ATOM     41  CG2 VAL A   3     -25.057  -6.572   9.524  0.00  0.00    +0.002 C 
ATOM     42  CG1 VAL A   3     -24.868  -4.420   8.137  0.00  0.00    +0.002 C 
ENDBRANCH  20  40
ENDBRANCH  16  20
ENDBRANCH  15  18
BRANCH  15  43
ATOM     43  CB  PHE A   4     -22.524  -5.276   3.480  0.00  0.00    +0.055 C 
BRANCH  43  44
ATOM     44  CG  PHE A   4     -22.089  -4.392   2.320  0.00  0.00    -0.020 A 
ATOM     45  CD2 PHE A   4     -21.703  -3.074   2.533  0.00  0.00    -0.004 A 
ATOM     46  CE2 PHE A   4     -21.305  -2.271   1.465  0.00  0.00    -0.000 A 
ATOM     47  CZ  PHE A   4     -21.306  -2.778   0.176  0.00  0.00    -0.000 A 
ATOM     48  CE1 PHE A   4     -21.674  -4.078  -0.043  0.00  0.00    -0.000 A 
ATOM     49  CD1 PHE A   4     -22.064  -4.884   1.025  0.00  0.00    -0.004 A 
ENDBRANCH  43  44
ENDBRANCH  15  43
ENDBRANCH  11  15
ENDBRANCH  10  12
BRANCH  10  50
ATOM     50  CB  PHE A   5     -26.336  -8.599   1.533  0.00  0.00    +0.055 C 
BRANCH  50  51
ATOM     51  CG  PHE A   5     -25.180  -9.112   0.700  0.00  0.00    -0.020 A 
ATOM     52  CD2 PHE A   5     -25.000 -10.472   0.479  0.00  0.00    -0.004 A 
ATOM     53  CE2 PHE A   5     -23.943 -10.939  -0.290  0.00  0.00    -0.000 A 
ATOM     54  CZ  PHE A   5     -23.050 -10.049  -0.844  0.00  0.00    -0.000 A 
ATOM     55  CE1 PHE A   5     -23.215  -8.691  -0.628  0.00  0.00    -0.000 A 
ATOM     56  CD1 PHE A   5     -24.281  -8.231   0.137  0.00  0.00    -0.004 A 
ENDBRANCH  50  51
ENDBRANCH  10  50
ENDBRANCH   6  10
ENDBRANCH   5   7
BRANCH   5  57
ATOM     57  CB  ASP A   6     -29.628  -5.872   5.160  0.00  0.00    +0.143 C 
BRANCH  57  58
ATOM     58  CG  ASP A   6     -30.262  -7.186   5.619  0.00  0.00    +0.367 C 
ATOM     59  OD2 ASP A   6     -30.843  -7.238   6.729  0.00  0.00    -0.246 OA
ATOM     60  OD1 ASP A   6     -30.188  -8.169   4.857  0.00  0.00    -0.246 OA
ENDBRANCH  57  58
ENDBRANCH   5  57
ENDBRANCH   1   5
BRANCH   2  61
ATOM     61  CA  GLY A   7     -28.278  -2.278   2.853  0.00  0.00    +0.176 C 
BRANCH  61  62
ATOM     62  C   GLY A   7     -28.125  -2.178   1.347  0.00  0.00    +0.243 C 
ATOM     63  N   ALA A   8     -27.451  -3.163   0.759  0.00  0.00    -0.297 N 
ATOM     64  H   ALA A   8     -27.076  -3.944   1.335  0.00  0.00    +0.150 HD
ATOM     65  O   GLY A   7     -28.619  -1.234   0.722  0.00  0.00    -0.273 OA
BRANCH  63  66
ATOM     66  CA  ALA A   8     -27.232  -3.161  -0.677  0.00  0.00    +0.149 C 
ATOM     67  CB  ALA A   8     -26.412  -4.381  -1.100  0.00  0.00    +0.031 C 
BRANCH  66  68
ATOM     68  C   ALA A   8     -28.586  -3.123  -1.391  0.00  0.00    +0.241 C 
ATOM     69  N   THR A   9     -29.532  -3.929  -0.927  0.00  0.00    -0.295 N 
ATOM     70  H   THR A   9     -29.335  -4.570  -0.132  0.00  0.00    +0.150 HD
ATOM     71  O   ALA A   8     -28.786  -2.359  -2.334  0.00  0.00    -0.273 OA
BRANCH  69  72
ATOM     72  CA  THR A   9     -30.851  -3.904  -1.547  0.00  0.00    +0.176 C 
BRANCH  72  73
ATOM     73  C   THR A   9     -31.684  -2.658  -1.170  0.00  0.00    +0.243 C 
ATOM     74  N   LEU A  10     -31.762  -2.346   0.120  0.00  0.00    -0.297 N 
ATOM     75  H   LEU A  10     -31.273  -2.942   0.819  0.00  0.00    +0.150 HD
ATOM     76  O   THR A   9     -32.198  -1.960  -2.049  0.00  0.00    -0.273 OA
BRANCH  74  77
ATOM     77  CA  LEU A  10     -32.526  -1.174   0.580  0.00  0.00    +0.149 C 
BRANCH  77  78
ATOM     78  C   LEU A  10     -32.055   0.145  -0.063  0.00  0.00    +0.241 C 
ATOM     79  N   HIS A  11     -30.750   0.378   0.009  0.00  0.00    -0.297 N 
ATOM     80  H   HIS A  11     -30.133  -0.343   0.433  0.00  0.00    +0.150 HD
ATOM     81  O   LEU A  10     -32.858   0.936  -0.587  0.00  0.00    -0.273 OA
BRANCH  79  82
ATOM     82  CA  HIS A  11     -30.154   1.613  -0.488  0.00  0.00    +0.155 C 
BRANCH  82  83
ATOM     83  C   HIS A  11     -30.301   1.697  -2.014  0.00  0.00    +0.241 C 
ATOM     84  O   HIS A  11     -30.495   2.788  -2.550  0.00  0.00    -0.273 OA
ATOM     85  N   ALA A  12     -30.193   0.549  -2.704  0.00  0.00    -0.297 N 
ATOM     86  H   ALA A  12     -29.927  -0.326  -2.208  0.00  0.00    +0.150 HD
BRANCH  85  87
ATOM     87  CA  ALA A  12     -30.447   0.515  -4.153  0.00  0.00    +0.149 C 
ATOM     88  CB  ALA A  12     -30.220  -0.888  -4.761  0.00  0.00    +0.031 C 
BRANCH  87  89
ATOM     89  C   ALA A  12     -31.861   0.985  -4.439  0.00  0.00    +0.241 C 
ATOM     90  N   LEU A  13     -32.834   0.500  -3.659  0.00  0.00    -0.298 N 
ATOM     91  H   LEU A  13     -32.603  -0.165  -2.894  0.00  0.00    +0.150 HD
ATOM     92  O   ALA A  12     -32.063   1.784  -5.339  0.00  0.00    -0.273 OA
BRANCH  90  93
ATOM     93  CA  LEU A  13     -34.220   0.903  -3.880  0.00  0.00    +0.137 C 
BRANCH  93  94
ATOM     94  C   LEU A  13     -34.467   2.377  -3.571  0.00  0.00    +0.227 C 
ATOM     95  O   LEU A  13     -35.106   3.087  -4.353  0.00  0.00    -0.286 OA
ENDBRANCH  93  94
BRANCH  93  96
ATOM     96  CB  LEU A  13     -35.187   0.023  -3.100  0.00  0.00    +0.028 C 
BRANCH  96  97
ATOM     97  CG  LEU A  13     -35.229  -1.444  -3.523  0.00  0.00    +0.002 C 
ATOM     98  CD2 LEU A  13     -36.062  -2.259  -2.552  0.00  0.00    +0.000 C 
ATOM     99  CD1 LEU A  13     -35.741  -1.575  -4.955  0.00  0.00    +0.000 C 
ENDBRANCH  96  97
ENDBRANCH  93  96
ENDBRANCH  90  93
ENDBRANCH  87  89
ENDBRANCH  85  87
ENDBRANCH  82  83
BRANCH  82 100
ATOM    100  CB  HIS A  11     -28.685   1.627  -0.096  0.00  0.00    +0.076 C 
BRANCH 100 101
ATOM    101  CG  HIS A  11     -27.923   2.841  -0.534  0.00  0.00    +0.082 A 
ATOM    102  CD2 HIS A  11     -27.447   3.893   0.173  0.00  0.00    +0.115 A 
ATOM    103  NE2 HIS A  11     -26.748   4.690  -0.704  0.00  0.00    -0.221 NA
ATOM    104  CE1 HIS A  11     -26.782   4.138  -1.902  0.00  0.00    +0.199 A 
ATOM    105  ND1 HIS A  11     -27.479   3.016  -1.828  0.00  0.00    -0.227 NA
ENDBRANCH 100 101
ENDBRANCH  82 100
ENDBRANCH  79  82
ENDBRANCH  77  78
BRANCH  77 106
ATOM    106  CB  LEU A  10     -32.506  -1.066   2.126  0.00  0.00    +0.029 C 
BRANCH 106 107
ATOM    107  CG  LEU A  10     -33.092   0.197   2.778  0.00  0.00    +0.002 C 
ATOM    108  CD2 LEU A  10     -32.929   0.136   4.268  0.00  0.00    +0.000 C 
ATOM    109  CD1 LEU A  10     -34.579   0.348   2.451  0.00  0.00    +0.000 C 
ENDBRANCH 106 107
ENDBRANCH  77 106
ENDBRANCH  74  77
ENDBRANCH  72  73
BRANCH  72 110
ATOM    110  CB  THR A   9     -31.602  -5.230  -1.319  0.00  0.00    +0.137 C 
ATOM    111  CG2 THR A   9     -33.100  -5.043  -1.520  0.00  0.00    +0.034 C 
BRANCH 110 112
ATOM    112  OG1 THR A   9     -31.097  -6.198  -2.251  0.00  0.00    -0.382 OA
ATOM    113  HG1 THR A   9     -31.569  -7.058  -2.119  0.00  0.00    +0.210 HD
ENDBRANCH 110 112
ENDBRANCH  72 110
ENDBRANCH  69  72
ENDBRANCH  66  68
ENDBRANCH  63  66
ENDBRANCH  61  62
ENDBRANCH   2  61
TORSDOF 44
REMARK  Name = ../refined-set-2016/3v78/3v78_pocket.pdb
REMARK  217 active torsions:
REMARK  status: ('A' for Active; 'I' for Inactive)
REMARK    1  A    between atoms: _1  and  _3
REMARK    2  A    between atoms: _3  and  _4
REMARK    3  A    between atoms: _7  and  _9
REMARK    4  A    between atoms: _9  and  _10
REMARK    5  A    between atoms: _13  and  _15
REMARK    6  A    between atoms: _15  and  _16
REMARK    7  A    between atoms: _15  and  _18
REMARK    8  A    between atoms: _18  and  _19
REMARK    9  A    between atoms: _24  and  _26
REMARK   10  A    between atoms: _26  and  _27
REMARK   11  A    between atoms: _30  and  _32
REMARK   12  A    between atoms: _32  and  _33
REMARK   13  A    between atoms: _32  and  _35
REMARK   14  A    between atoms: _35  and  _36
REMARK   15  A    between atoms: _38  and  _40
REMARK   16  A    between atoms: _40  and  _41
REMARK   17  A    between atoms: _44  and  _46
REMARK   18  A    between atoms: _46  and  _47
REMARK   19  A    between atoms: _46  and  _49
REMARK   20  A    between atoms: _49  and  _50
REMARK   21  A    between atoms: _53  and  _55
REMARK   22  A    between atoms: _55  and  _56
REMARK   23  A    between atoms: _55  and  _58
REMARK   24  A    between atoms: _58  and  _59
REMARK   25  A    between atoms: _62  and  _64
REMARK   26  A    between atoms: _64  and  _65
REMARK   27  A    between atoms: _64  and  _67
REMARK   28  A    between atoms: _67  and  _68
REMARK   29  A    between atoms: _71  and  _73
REMARK   30  A    between atoms: _73  and  _74
REMARK   31  A    between atoms: _77  and  _79
REMARK   32  A    between atoms: _79  and  _80
REMARK   33  A    between atoms: _79  and  _82
REMARK   34  A    between atoms: _82  and  _83
REMARK   35  A    between atoms: _83  and  _84
REMARK   36  A    between atoms: _89  and  _91
REMARK   37  A    between atoms: _91  and  _92
REMARK   38  A    between atoms: _91  and  _94
REMARK   39  A    between atoms: _94  and  _95
REMARK   40  A    between atoms: _105  and  _107
REMARK   41  A    between atoms: _107  and  _108
REMARK   42  A    between atoms: _107  and  _110
REMARK   43  A    between atoms: _110  and  _111
REMARK   44  A    between atoms: _114  and  _116
REMARK   45  A    between atoms: _116  and  _117
REMARK   46  A    between atoms: _120  and  _122
REMARK   47  A    between atoms: _122  and  _123
REMARK   48  A    between atoms: _122  and  _125
REMARK   49  A    between atoms: _125  and  _126
REMARK   50  A    between atoms: _129  and  _131
REMARK   51  A    between atoms: _131  and  _132
REMARK   52  A    between atoms: _131  and  _134
REMARK   53  A    between atoms: _134  and  _135
REMARK   54  A    between atoms: _138  and  _140
REMARK   55  A    between atoms: _140  and  _141
REMARK   56  A    between atoms: _140  and  _143
REMARK   57  A    between atoms: _143  and  _144
REMARK   58  A    between atoms: _147  and  _149
REMARK   59  A    between atoms: _149  and  _150
REMARK   60  A    between atoms: _149  and  _152
REMARK   61  A    between atoms: _155  and  _157
REMARK   62  A    between atoms: _157  and  _158
REMARK   63  A    between atoms: _157  and  _160
REMARK   64  A    between atoms: _160  and  _161
REMARK   65  A    between atoms: _166  and  _167
REMARK   66  A    between atoms: _169  and  _171
REMARK   67  A    between atoms: _171  and  _172
REMARK   68  A    between atoms: _171  and  _174
REMARK   69  A    between atoms: _174  and  _175
REMARK   70  A    between atoms: _178  and  _180
REMARK   71  A    between atoms: _180  and  _181
REMARK   72  A    between atoms: _180  and  _183
REMARK   73  A    between atoms: _183  and  _184
REMARK   74  A    between atoms: _189  and  _190
REMARK   75  A    between atoms: _192  and  _194
REMARK   76  A    between atoms: _194  and  _195
REMARK   77  A    between atoms: _194  and  _197
REMARK   78  A    between atoms: _197  and  _198
REMARK   79  A    between atoms: _198  and  _199
REMARK   80  A    between atoms: _199  and  _200
REMARK   81  A    between atoms: _209  and  _211
REMARK   82  A    between atoms: _211  and  _212
REMARK   83  A    between atoms: _211  and  _214
REMARK   84  A    between atoms: _214  and  _215
REMARK   85  A    between atoms: _218  and  _220
REMARK   86  A    between atoms: _220  and  _221
REMARK   87  A    between atoms: _220  and  _223
REMARK   88  A    between atoms: _223  and  _224
REMARK   89  A    between atoms: _227  and  _229
REMARK   90  A    between atoms: _229  and  _230
REMARK   91  A    between atoms: _229  and  _232
REMARK   92  A    between atoms: _232  and  _233
REMARK   93  A    between atoms: _238  and  _240
REMARK   94  A    between atoms: _240  and  _241
REMARK   95  A    between atoms: _240  and  _243
REMARK   96  A    between atoms: _243  and  _244
REMARK   97  A    between atoms: _244  and  _245
REMARK   98  A    between atoms: _248  and  _250
REMARK   99  A    between atoms: _250  and  _251
REMARK  100  A    between atoms: _250  and  _253
REMARK  101  A    between atoms: _253  and  _254
REMARK  102  A    between atoms: _257  and  _259
REMARK  103  A    between atoms: _259  and  _260
REMARK  104  A    between atoms: _259  and  _262
REMARK  105  A    between atoms: _262  and  _263
REMARK  106  A    between atoms: _268  and  _269
REMARK  107  A    between atoms: _271  and  _273
REMARK  108  A    between atoms: _273  and  _274
REMARK  109  A    between atoms: _273  and  _276
REMARK  110  A    between atoms: _276  and  _277
REMARK  111  A    between atoms: _277  and  _278
REMARK  112  A    between atoms: _280  and  _282
REMARK  113  A    between atoms: _282  and  _283
REMARK  114  A    between atoms: _286  and  _288
REMARK  115  A    between atoms: _288  and  _289
REMARK  116  A    between atoms: _288  and  _291
REMARK  117  A    between atoms: _291  and  _292
REMARK  118  A    between atoms: _295  and  _297
REMARK  119  A    between atoms: _297  and  _298
REMARK  120  A    between atoms: _301  and  _303
REMARK  121  A    between atoms: _303  and  _304
REMARK  122  A    between atoms: _303  and  _306
REMARK  123  A    between atoms: _306  and  _307
REMARK  124  A    between atoms: _307  and  _308
REMARK  125  A    between atoms: _308  and  _309
REMARK  126  A    between atoms: _318  and  _320
REMARK  127  A    between atoms: _320  and  _321
REMARK  128  A    between atoms: _320  and  _323
REMARK  129  A    between atoms: _323  and  _324
REMARK  130  A    between atoms: _327  and  _329
REMARK  131  A    between atoms: _329  and  _330
REMARK  132  A    between atoms: _329  and  _332
REMARK  133  A    between atoms: _332  and  _333
REMARK  134  A    between atoms: _344  and  _345
REMARK  135  A    between atoms: _350  and  _352
REMARK  136  A    between atoms: _352  and  _353
REMARK  137  A    between atoms: _355  and  _357
REMARK  138  A    between atoms: _357  and  _358
REMARK  139  A    between atoms: _357  and  _360
REMARK  140  A    between atoms: _360  and  _361
REMARK  141  A    between atoms: _364  and  _366
REMARK  142  A    between atoms: _366  and  _367
REMARK  143  A    between atoms: _366  and  _369
REMARK  144  A    between atoms: _372  and  _374
REMARK  145  A    between atoms: _374  and  _375
REMARK  146  A    between atoms: _374  and  _377
REMARK  147  A    between atoms: _377  and  _378
REMARK  148  A    between atoms: _381  and  _383
REMARK  149  A    between atoms: _383  and  _384
REMARK  150  A    between atoms: _383  and  _386
REMARK  151  A    between atoms: _389  and  _391
REMARK  152  A    between atoms: _391  and  _392
REMARK  153  A    between atoms: _391  and  _394
REMARK  154  A    between atoms: _394  and  _395
REMARK  155  A    between atoms: _401  and  _403
REMARK  156  A    between atoms: _403  and  _404
REMARK  157  A    between atoms: _403  and  _406
REMARK  158  A    between atoms: _406  and  _407
REMARK  159  A    between atoms: _413  and  _415
REMARK  160  A    between atoms: _415  and  _416
REMARK  161  A    between atoms: _415  and  _418
REMARK  162  A    between atoms: _418  and  _419
REMARK  163  A    between atoms: _422  and  _424
REMARK  164  A    between atoms: _424  and  _425
REMARK  165  A    between atoms: _427  and  _429
REMARK  166  A    between atoms: _429  and  _430
REMARK  167  A    between atoms: _433  and  _435
REMARK  168  A    between atoms: _435  and  _436
REMARK  169  A    between atoms: _435  and  _438
REMARK  170  A    between atoms: _438  and  _439
REMARK  171  A    between atoms: _442  and  _444
REMARK  172  A    between atoms: _444  and  _445
REMARK  173  A    between atoms: _444  and  _447
REMARK  174  A    between atoms: _447  and  _448
REMARK  175  A    between atoms: _451  and  _453
REMARK  176  A    between atoms: _453  and  _454
REMARK  177  A    between atoms: _453  and  _456
REMARK  178  A    between atoms: _456  and  _457
REMARK  179  A    between atoms: _462  and  _464
REMARK  180  A    between atoms: _464  and  _465
REMARK  181  A    between atoms: _468  and  _470
REMARK  182  A    between atoms: _470  and  _471
REMARK  183  A    between atoms: _470  and  _473
REMARK  184  A    between atoms: _473  and  _474
REMARK  185  A    between atoms: _477  and  _479
REMARK  186  A    between atoms: _479  and  _480
REMARK  187  A    between atoms: _479  and  _482
REMARK  188  A    between atoms: _482  and  _483
REMARK  189  A    between atoms: _486  and  _488
REMARK  190  A    between atoms: _488  and  _489
REMARK  191  A    between atoms: _488  and  _491
REMARK  192  A    between atoms: _491  and  _492
REMARK  193  A    between atoms: _492  and  _493
REMARK  194  A    between atoms: _495  and  _497
REMARK  195  A    between atoms: _497  and  _498
REMARK  196  A    between atoms: _501  and  _503
REMARK  197  A    between atoms: _503  and  _504
REMARK  198  A    between atoms: _503  and  _506
REMARK  199  A    between atoms: _506  and  _507
REMARK  200  A    between atoms: _512  and  _514
REMARK  201  A    between atoms: _514  and  _515
REMARK  202  A    between atoms: _514  and  _517
REMARK  203  A    between atoms: _517  and  _518
REMARK  204  A    between atoms: _521  and  _523
REMARK  205  A    between atoms: _523  and  _524
REMARK  206  A    between atoms: _526  and  _528
REMARK  207  A    between atoms: _528  and  _529
REMARK  208  A    between atoms: _528  and  _531
REMARK  209  A    between atoms: _531  and  _532
REMARK  210  A    between atoms: _535  and  _537
REMARK  211  A    between atoms: _537  and  _538
REMARK  212  A    between atoms: _537  and  _540
REMARK  213  A    between atoms: _540  and  _541
REMARK  214  A    between atoms: _546  and  _548
REMARK  215  A    between atoms: _548  and  _549
REMARK  216  A    between atoms: _548  and  _551
REMARK  217  A    between atoms: _551  and  _552
REMARK                            x       y       z     vdW  Elec       q    Type
REMARK                         _______ _______ _______ _____ _____    ______ ____
ROOT
ATOM      1  CA  LEU A   1     -20.057  -5.139  -4.629  0.00  0.00    +0.133 C 
ENDROOT
BRANCH   1   2
ATOM      2  N   LEU A   1     -19.627  -4.152  -5.604  0.00  0.00    -0.239 NA
ATOM      3  H   LEU A   1     -20.032  -4.168  -6.562  0.00  0.00    +0.142 HD
ENDBRANCH   1   2
BRANCH   1   4
ATOM      4  C   LEU A   1     -18.859  -6.005  -4.257  0.00  0.00    +0.224 C 
ATOM      5  O   LEU A   1     -18.558  -6.201  -3.071  0.00  0.00    -0.287 OA
ENDBRANCH   1   4
BRANCH   1   6
ATOM      6  CB  LEU A   1     -21.234  -5.979  -5.166  0.00  0.00    +0.025 C 
BRANCH   6   7
ATOM      7  CG  LEU A   1     -22.610  -5.291  -5.256  0.00  0.00    +0.002 C 
ATOM      8  CD2 LEU A   1     -23.269  -5.151  -3.861  0.00  0.00    +0.000 C 
ATOM      9  CD1 LEU A   1     -23.567  -5.989  -6.217  0.00  0.00    +0.000 C 
ENDBRANCH   6   7
ENDBRANCH   1   6
TORSDOF 4
REMARK  Name = ../refined-set-2016/3v78/3v78_pocket.pdb
REMARK  217 active torsions:
REMARK  status: ('A' for Active; 'I' for Inactive)
REMARK    1  A    between atoms: _1  and  _3
REMARK    2  A    between atoms: _3  and  _4
REMARK    3  A    between atoms: _7  and  _9
REMARK    4  A    between atoms: _9  and  _10
REMARK    5  A    between atoms: _13  and  _15
REMARK    6  A    between atoms: _15  and  _16
REMARK    7  A    between atoms: _15  and  _18
REMARK    8  A    between atoms: _18  and  _19
REMARK    9  A    between atoms: _24  and  _26
REMARK   10  A    between atoms: _26  and  _27
REMARK   11  A    between atoms: _30  and  _32
REMARK   12  A    between atoms: _32  and  _33
REMARK   13  A    between atoms: _32  and  _35
REMARK   14  A    between atoms: _35  and  _36
REMARK   15  A    between atoms: _38  and  _40
REMARK   16  A    between atoms: _40  and  _41
REMARK   17  A    between atoms: _44  and  _46
REMARK   18  A    between atoms: _46  and  _47
REMARK   19  A    between atoms: _46  and  _49
REMARK   20  A    between atoms: _49  and  _50
REMARK   21  A    between atoms: _53  and  _55
REMARK   22  A    between atoms: _55  and  _56
REMARK   23  A    between atoms: _55  and  _58
REMARK   24  A    between atoms: _58  and  _59
REMARK   25  A    between atoms: _62  and  _64
REMARK   26  A    between atoms: _64  and  _65
REMARK   27  A    between atoms: _64  and  _67
REMARK   28  A    between atoms: _67  and  _68
REMARK   29  A    between atoms: _71  and  _73
REMARK   30  A    between atoms: _73  and  _74
REMARK   31  A    between atoms: _77  and  _79
REMARK   32  A    between atoms: _79  and  _80
REMARK   33  A    between atoms: _79  and  _82
REMARK   34  A    between atoms: _82  and  _83
REMARK   35  A    between atoms: _83  and  _84
REMARK   36  A    between atoms: _89  and  _91
REMARK   37  A    between atoms: _91  and  _92
REMARK   38  A    between atoms: _91  and  _94
REMARK   39  A    between atoms: _94  and  _95
REMARK   40  A    between atoms: _105  and  _107
REMARK   41  A    between atoms: _107  and  _108
REMARK   42  A    between atoms: _107  and  _110
REMARK   43  A    between atoms: _110  and  _111
REMARK   44  A    between atoms: _114  and  _116
REMARK   45  A    between atoms: _116  and  _117
REMARK   46  A    between atoms: _120  and  _122
REMARK   47  A    between atoms: _122  and  _123
REMARK   48  A    between atoms: _122  and  _125
REMARK   49  A    between atoms: _125  and  _126
REMARK   50  A    between atoms: _129  and  _131
REMARK   51  A    between atoms: _131  and  _132
REMARK   52  A    between atoms: _131  and  _134
REMARK   53  A    between atoms: _134  and  _135
REMARK   54  A    between atoms: _138  and  _140
REMARK   55  A    between atoms: _140  and  _141
REMARK   56  A    between atoms: _140  and  _143
REMARK   57  A    between atoms: _143  and  _144
REMARK   58  A    between atoms: _147  and  _149
REMARK   59  A    between atoms: _149  and  _150
REMARK   60  A    between atoms: _149  and  _152
REMARK   61  A    between atoms: _155  and  _157
REMARK   62  A    between atoms: _157  and  _158
REMARK   63  A    between atoms: _157  and  _160
REMARK   64  A    between atoms: _160  and  _161
REMARK   65  A    between atoms: _166  and  _167
REMARK   66  A    between atoms: _169  and  _171
REMARK   67  A    between atoms: _171  and  _172
REMARK   68  A    between atoms: _171  and  _174
REMARK   69  A    between atoms: _174  and  _175
REMARK   70  A    between atoms: _178  and  _180
REMARK   71  A    between atoms: _180  and  _181
REMARK   72  A    between atoms: _180  and  _183
REMARK   73  A    between atoms: _183  and  _184
REMARK   74  A    between atoms: _189  and  _190
REMARK   75  A    between atoms: _192  and  _194
REMARK   76  A    between atoms: _194  and  _195
REMARK   77  A    between atoms: _194  and  _197
REMARK   78  A    between atoms: _197  and  _198
REMARK   79  A    between atoms: _198  and  _199
REMARK   80  A    between atoms: _199  and  _200
REMARK   81  A    between atoms: _209  and  _211
REMARK   82  A    between atoms: _211  and  _212
REMARK   83  A    between atoms: _211  and  _214
REMARK   84  A    between atoms: _214  and  _215
REMARK   85  A    between atoms: _218  and  _220
REMARK   86  A    between atoms: _220  and  _221
REMARK   87  A    between atoms: _220  and  _223
REMARK   88  A    between atoms: _223  and  _224
REMARK   89  A    between atoms: _227  and  _229
REMARK   90  A    between atoms: _229  and  _230
REMARK   91  A    between atoms: _229  and  _232
REMARK   92  A    between atoms: _232  and  _233
REMARK   93  A    between atoms: _238  and  _240
REMARK   94  A    between atoms: _240  and  _241
REMARK   95  A    between atoms: _240  and  _243
REMARK   96  A    between atoms: _243  and  _244
REMARK   97  A    between atoms: _244  and  _245
REMARK   98  A    between atoms: _248  and  _250
REMARK   99  A    between atoms: _250  and  _251
REMARK  100  A    between atoms: _250  and  _253
REMARK  101  A    between atoms: _253  and  _254
REMARK  102  A    between atoms: _257  and  _259
REMARK  103  A    between atoms: _259  and  _260
REMARK  104  A    between atoms: _259  and  _262
REMARK  105  A    between atoms: _262  and  _263
REMARK  106  A    between atoms: _268  and  _269
REMARK  107  A    between atoms: _271  and  _273
REMARK  108  A    between atoms: _273  and  _274
REMARK  109  A    between atoms: _273  and  _276
REMARK  110  A    between atoms: _276  and  _277
REMARK  111  A    between atoms: _277  and  _278
REMARK  112  A    between atoms: _280  and  _282
REMARK  113  A    between atoms: _282  and  _283
REMARK  114  A    between atoms: _286  and  _288
REMARK  115  A    between atoms: _288  and  _289
REMARK  116  A    between atoms: _288  and  _291
REMARK  117  A    between atoms: _291  and  _292
REMARK  118  A    between atoms: _295  and  _297
REMARK  119  A    between atoms: _297  and  _298
REMARK  120  A    between atoms: _301  and  _303
REMARK  121  A    between atoms: _303  and  _304
REMARK  122  A    between atoms: _303  and  _306
REMARK  123  A    between atoms: _306  and  _307
REMARK  124  A    between atoms: _307  and  _308
REMARK  125  A    between atoms: _308  and  _309
REMARK  126  A    between atoms: _318  and  _320
REMARK  127  A    between atoms: _320  and  _321
REMARK  128  A    between atoms: _320  and  _323
REMARK  129  A    between atoms: _323  and  _324
REMARK  130  A    between atoms: _327  and  _329
REMARK  131  A    between atoms: _329  and  _330
REMARK  132  A    between atoms: _329  and  _332
REMARK  133  A    between atoms: _332  and  _333
REMARK  134  A    between atoms: _344  and  _345
REMARK  135  A    between atoms: _350  and  _352
REMARK  136  A    between atoms: _352  and  _353
REMARK  137  A    between atoms: _355  and  _357
REMARK  138  A    between atoms: _357  and  _358
REMARK  139  A    between atoms: _357  and  _360
REMARK  140  A    between atoms: _360  and  _361
REMARK  141  A    between atoms: _364  and  _366
REMARK  142  A    between atoms: _366  and  _367
REMARK  143  A    between atoms: _366  and  _369
REMARK  144  A    between atoms: _372  and  _374
REMARK  145  A    between atoms: _374  and  _375
REMARK  146  A    between atoms: _374  and  _377
REMARK  147  A    between atoms: _377  and  _378
REMARK  148  A    between atoms: _381  and  _383
REMARK  149  A    between atoms: _383  and  _384
REMARK  150  A    between atoms: _383  and  _386
REMARK  151  A    between atoms: _389  and  _391
REMARK  152  A    between atoms: _391  and  _392
REMARK  153  A    between atoms: _391  and  _394
REMARK  154  A    between atoms: _394  and  _395
REMARK  155  A    between atoms: _401  and  _403
REMARK  156  A    between atoms: _403  and  _404
REMARK  157  A    between atoms: _403  and  _406
REMARK  158  A    between atoms: _406  and  _407
REMARK  159  A    between atoms: _413  and  _415
REMARK  160  A    between atoms: _415  and  _416
REMARK  161  A    between atoms: _415  and  _418
REMARK  162  A    between atoms: _418  and  _419
REMARK  163  A    between atoms: _422  and  _424
REMARK  164  A    between atoms: _424  and  _425
REMARK  165  A    between atoms: _427  and  _429
REMARK  166  A    between atoms: _429  and  _430
REMARK  167  A    between atoms: _433  and  _435
REMARK  168  A    between atoms: _435  and  _436
REMARK  169  A    between atoms: _435  and  _438
REMARK  170  A    between atoms: _438  and  _439
REMARK  171  A    between atoms: _442  and  _444
REMARK  172  A    between atoms: _444  and  _445
REMARK  173  A    between atoms: _444  and  _447
REMARK  174  A    between atoms: _447  and  _448
REMARK  175  A    between atoms: _451  and  _453
REMARK  176  A    between atoms: _453  and  _454
REMARK  177  A    between atoms: _453  and  _456
REMARK  178  A    between atoms: _456  and  _457
REMARK  179  A    between atoms: _462  and  _464
REMARK  180  A    between atoms: _464  and  _465
REMARK  181  A    between atoms: _468  and  _470
REMARK  182  A    between atoms: _470  and  _471
REMARK  183  A    between atoms: _470  and  _473
REMARK  184  A    between atoms: _473  and  _474
REMARK  185  A    between atoms: _477  and  _479
REMARK  186  A    between atoms: _479  and  _480
REMARK  187  A    between atoms: _479  and  _482
REMARK  188  A    between atoms: _482  and  _483
REMARK  189  A    between atoms: _486  and  _488
REMARK  190  A    between atoms: _488  and  _489
REMARK  191  A    between atoms: _488  and  _491
REMARK  192  A    between atoms: _491  and  _492
REMARK  193  A    between atoms: _492  and  _493
REMARK  194  A    between atoms: _495  and  _497
REMARK  195  A    between atoms: _497  and  _498
REMARK  196  A    between atoms: _501  and  _503
REMARK  197  A    between atoms: _503  and  _504
REMARK  198  A    between atoms: _503  and  _506
REMARK  199  A    between atoms: _506  and  _507
REMARK  200  A    between atoms: _512  and  _514
REMARK  201  A    between atoms: _514  and  _515
REMARK  202  A    between atoms: _514  and  _517
REMARK  203  A    between atoms: _517  and  _518
REMARK  204  A    between atoms: _521  and  _523
REMARK  205  A    between atoms: _523  and  _524
REMARK  206  A    between atoms: _526  and  _528
REMARK  207  A    between atoms: _528  and  _529
REMARK  208  A    between atoms: _528  and  _531
REMARK  209  A    between atoms: _531  and  _532
REMARK  210  A    between atoms: _535  and  _537
REMARK  211  A    between atoms: _537  and  _538
REMARK  212  A    between atoms: _537  and  _540
REMARK  213  A    between atoms: _540  and  _541
REMARK  214  A    between atoms: _546  and  _548
REMARK  215  A    between atoms: _548  and  _549
REMARK  216  A    between atoms: _548  and  _551
REMARK  217  A    between atoms: _551  and  _552
REMARK                            x       y       z     vdW  Elec       q    Type
REMARK                         _______ _______ _______ _____ _____    ______ ____
ROOT
ATOM      1  CA  MET A   1     -38.345   1.273   4.859  0.00  0.00    +0.134 C 
ENDROOT
BRANCH   1   2
ATOM      2  N   MET A   1     -38.108   2.612   5.389  0.00  0.00    -0.239 NA
ATOM      3  H   MET A   1     -38.283   2.817   6.394  0.00  0.00    +0.142 HD
ENDBRANCH   1   2
BRANCH   1   4
ATOM      4  C   MET A   1     -39.488   1.265   3.840  0.00  0.00    +0.224 C 
ATOM      5  O   MET A   1     -39.379   0.685   2.756  0.00  0.00    -0.287 OA
ENDBRANCH   1   4
BRANCH   1   6
ATOM      6  CB  MET A   1     -38.594   0.270   5.989  0.00  0.00    +0.037 C 
BRANCH   6   7
ATOM      7  CG  MET A   1     -37.542  -0.804   6.053  0.00  0.00    +0.059 C 
BRANCH   7   8
ATOM      8  SD  MET A   1     -35.943  -0.282   6.686  0.00  0.00    -0.139 S 
ATOM      9  CE  MET A   1     -36.369  -0.002   8.401  0.00  0.00    +0.069 C 
ENDBRANCH   7   8
ENDBRANCH   6   7
ENDBRANCH   1   6
TORSDOF 5
REMARK  Name = ../refined-set-2016/3v78/3v78_pocket.pdb
REMARK  217 active torsions:
REMARK  status: ('A' for Active; 'I' for Inactive)
REMARK    1  A    between atoms: _1  and  _3
REMARK    2  A    between atoms: _3  and  _4
REMARK    3  A    between atoms: _7  and  _9
REMARK    4  A    between atoms: _9  and  _10
REMARK    5  A    between atoms: _13  and  _15
REMARK    6  A    between atoms: _15  and  _16
REMARK    7  A    between atoms: _15  and  _18
REMARK    8  A    between atoms: _18  and  _19
REMARK    9  A    between atoms: _24  and  _26
REMARK   10  A    between atoms: _26  and  _27
REMARK   11  A    between atoms: _30  and  _32
REMARK   12  A    between atoms: _32  and  _33
REMARK   13  A    between atoms: _32  and  _35
REMARK   14  A    between atoms: _35  and  _36
REMARK   15  A    between atoms: _38  and  _40
REMARK   16  A    between atoms: _40  and  _41
REMARK   17  A    between atoms: _44  and  _46
REMARK   18  A    between atoms: _46  and  _47
REMARK   19  A    between atoms: _46  and  _49
REMARK   20  A    between atoms: _49  and  _50
REMARK   21  A    between atoms: _53  and  _55
REMARK   22  A    between atoms: _55  and  _56
REMARK   23  A    between atoms: _55  and  _58
REMARK   24  A    between atoms: _58  and  _59
REMARK   25  A    between atoms: _62  and  _64
REMARK   26  A    between atoms: _64  and  _65
REMARK   27  A    between atoms: _64  and  _67
REMARK   28  A    between atoms: _67  and  _68
REMARK   29  A    between atoms: _71  and  _73
REMARK   30  A    between atoms: _73  and  _74
REMARK   31  A    between atoms: _77  and  _79
REMARK   32  A    between atoms: _79  and  _80
REMARK   33  A    between atoms: _79  and  _82
REMARK   34  A    between atoms: _82  and  _83
REMARK   35  A    between atoms: _83  and  _84
REMARK   36  A    between atoms: _89  and  _91
REMARK   37  A    between atoms: _91  and  _92
REMARK   38  A    between atoms: _91  and  _94
REMARK   39  A    between atoms: _94  and  _95
REMARK   40  A    between atoms: _105  and  _107
REMARK   41  A    between atoms: _107  and  _108
REMARK   42  A    between atoms: _107  and  _110
REMARK   43  A    between atoms: _110  and  _111
REMARK   44  A    between atoms: _114  and  _116
REMARK   45  A    between atoms: _116  and  _117
REMARK   46  A    between atoms: _120  and  _122
REMARK   47  A    between atoms: _122  and  _123
REMARK   48  A    between atoms: _122  and  _125
REMARK   49  A    between atoms: _125  and  _126
REMARK   50  A    between atoms: _129  and  _131
REMARK   51  A    between atoms: _131  and  _132
REMARK   52  A    between atoms: _131  and  _134
REMARK   53  A    between atoms: _134  and  _135
REMARK   54  A    between atoms: _138  and  _140
REMARK   55  A    between atoms: _140  and  _141
REMARK   56  A    between atoms: _140  and  _143
REMARK   57  A    between atoms: _143  and  _144
REMARK   58  A    between atoms: _147  and  _149
REMARK   59  A    between atoms: _149  and  _150
REMARK   60  A    between atoms: _149  and  _152
REMARK   61  A    between atoms: _155  and  _157
REMARK   62  A    between atoms: _157  and  _158
REMARK   63  A    between atoms: _157  and  _160
REMARK   64  A    between atoms: _160  and  _161
REMARK   65  A    between atoms: _166  and  _167
REMARK   66  A    between atoms: _169  and  _171
REMARK   67  A    between atoms: _171  and  _172
REMARK   68  A    between atoms: _171  and  _174
REMARK   69  A    between atoms: _174  and  _175
REMARK   70  A    between atoms: _178  and  _180
REMARK   71  A    between atoms: _180  and  _181
REMARK   72  A    between atoms: _180  and  _183
REMARK   73  A    between atoms: _183  and  _184
REMARK   74  A    between atoms: _189  and  _190
REMARK   75  A    between atoms: _192  and  _194
REMARK   76  A    between atoms: _194  and  _195
REMARK   77  A    between atoms: _194  and  _197
REMARK   78  A    between atoms: _197  and  _198
REMARK   79  A    between atoms: _198  and  _199
REMARK   80  A    between atoms: _199  and  _200
REMARK   81  A    between atoms: _209  and  _211
REMARK   82  A    between atoms: _211  and  _212
REMARK   83  A    between atoms: _211  and  _214
REMARK   84  A    between atoms: _214  and  _215
REMARK   85  A    between atoms: _218  and  _220
REMARK   86  A    between atoms: _220  and  _221
REMARK   87  A    between atoms: _220  and  _223
REMARK   88  A    between atoms: _223  and  _224
REMARK   89  A    between atoms: _227  and  _229
REMARK   90  A    between atoms: _229  and  _230
REMARK   91  A    between atoms: _229  and  _232
REMARK   92  A    between atoms: _232  and  _233
REMARK   93  A    between atoms: _238  and  _240
REMARK   94  A    between atoms: _240  and  _241
REMARK   95  A    between atoms: _240  and  _243
REMARK   96  A    between atoms: _243  and  _244
REMARK   97  A    between atoms: _244  and  _245
REMARK   98  A    between atoms: _248  and  _250
REMARK   99  A    between atoms: _250  and  _251
REMARK  100  A    between atoms: _250  and  _253
REMARK  101  A    between atoms: _253  and  _254
REMARK  102  A    between atoms: _257  and  _259
REMARK  103  A    between atoms: _259  and  _260
REMARK  104  A    between atoms: _259  and  _262
REMARK  105  A    between atoms: _262  and  _263
REMARK  106  A    between atoms: _268  and  _269
REMARK  107  A    between atoms: _271  and  _273
REMARK  108  A    between atoms: _273  and  _274
REMARK  109  A    between atoms: _273  and  _276
REMARK  110  A    between atoms: _276  and  _277
REMARK  111  A    between atoms: _277  and  _278
REMARK  112  A    between atoms: _280  and  _282
REMARK  113  A    between atoms: _282  and  _283
REMARK  114  A    between atoms: _286  and  _288
REMARK  115  A    between atoms: _288  and  _289
REMARK  116  A    between atoms: _288  and  _291
REMARK  117  A    between atoms: _291  and  _292
REMARK  118  A    between atoms: _295  and  _297
REMARK  119  A    between atoms: _297  and  _298
REMARK  120  A    between atoms: _301  and  _303
REMARK  121  A    between atoms: _303  and  _304
REMARK  122  A    between atoms: _303  and  _306
REMARK  123  A    between atoms: _306  and  _307
REMARK  124  A    between atoms: _307  and  _308
REMARK  125  A    between atoms: _308  and  _309
REMARK  126  A    between atoms: _318  and  _320
REMARK  127  A    between atoms: _320  and  _321
REMARK  128  A    between atoms: _320  and  _323
REMARK  129  A    between atoms: _323  and  _324
REMARK  130  A    between atoms: _327  and  _329
REMARK  131  A    between atoms: _329  and  _330
REMARK  132  A    between atoms: _329  and  _332
REMARK  133  A    between atoms: _332  and  _333
REMARK  134  A    between atoms: _344  and  _345
REMARK  135  A    between atoms: _350  and  _352
REMARK  136  A    between atoms: _352  and  _353
REMARK  137  A    between atoms: _355  and  _357
REMARK  138  A    between atoms: _357  and  _358
REMARK  139  A    between atoms: _357  and  _360
REMARK  140  A    between atoms: _360  and  _361
REMARK  141  A    between atoms: _364  and  _366
REMARK  142  A    between atoms: _366  and  _367
REMARK  143  A    between atoms: _366  and  _369
REMARK  144  A    between atoms: _372  and  _374
REMARK  145  A    between atoms: _374  and  _375
REMARK  146  A    between atoms: _374  and  _377
REMARK  147  A    between atoms: _377  and  _378
REMARK  148  A    between atoms: _381  and  _383
REMARK  149  A    between atoms: _383  and  _384
REMARK  150  A    between atoms: _383  and  _386
REMARK  151  A    between atoms: _389  and  _391
REMARK  152  A    between atoms: _391  and  _392
REMARK  153  A    between atoms: _391  and  _394
REMARK  154  A    between atoms: _394  and  _395
REMARK  155  A    between atoms: _401  and  _403
REMARK  156  A    between atoms: _403  and  _404
REMARK  157  A    between atoms: _403  and  _406
REMARK  158  A    between atoms: _406  and  _407
REMARK  159  A    between atoms: _413  and  _415
REMARK  160  A    between atoms: _415  and  _416
REMARK  161  A    between atoms: _415  and  _418
REMARK  162  A    between atoms: _418  and  _419
REMARK  163  A    between atoms: _422  and  _424
REMARK  164  A    between atoms: _424  and  _425
REMARK  165  A    between atoms: _427  and  _429
REMARK  166  A    between atoms: _429  and  _430
REMARK  167  A    between atoms: _433  and  _435
REMARK  168  A    between atoms: _435  and  _436
REMARK  169  A    between atoms: _435  and  _438
REMARK  170  A    between atoms: _438  and  _439
REMARK  171  A    between atoms: _442  and  _444
REMARK  172  A    between atoms: _444  and  _445
REMARK  173  A    between atoms: _444  and  _447
REMARK  174  A    between atoms: _447  and  _448
REMARK  175  A    between atoms: _451  and  _453
REMARK  176  A    between atoms: _453  and  _454
REMARK  177  A    between atoms: _453  and  _456
REMARK  178  A    between atoms: _456  and  _457
REMARK  179  A    between atoms: _462  and  _464
REMARK  180  A    between atoms: _464  and  _465
REMARK  181  A    between atoms: _468  and  _470
REMARK  182  A    between atoms: _470  and  _471
REMARK  183  A    between atoms: _470  and  _473
REMARK  184  A    between atoms: _473  and  _474
REMARK  185  A    between atoms: _477  and  _479
REMARK  186  A    between atoms: _479  and  _480
REMARK  187  A    between atoms: _479  and  _482
REMARK  188  A    between atoms: _482  and  _483
REMARK  189  A    between atoms: _486  and  _488
REMARK  190  A    between atoms: _488  and  _489
REMARK  191  A    between atoms: _488  and  _491
REMARK  192  A    between atoms: _491  and  _492
REMARK  193  A    between atoms: _492  and  _493
REMARK  194  A    between atoms: _495  and  _497
REMARK  195  A    between atoms: _497  and  _498
REMARK  196  A    between atoms: _501  and  _503
REMARK  197  A    between atoms: _503  and  _504
REMARK  198  A    between atoms: _503  and  _506
REMARK  199  A    between atoms: _506  and  _507
REMARK  200  A    between atoms: _512  and  _514
REMARK  201  A    between atoms: _514  and  _515
REMARK  202  A    between atoms: _514  and  _517
REMARK  203  A    between atoms: _517  and  _518
REMARK  204  A    between atoms: _521  and  _523
REMARK  205  A    between atoms: _523  and  _524
REMARK  206  A    between atoms: _526  and  _528
REMARK  207  A    between atoms: _528  and  _529
REMARK  208  A    between atoms: _528  and  _531
REMARK  209  A    between atoms: _531  and  _532
REMARK  210  A    between atoms: _535  and  _537
REMARK  211  A    between atoms: _537  and  _538
REMARK  212  A    between atoms: _537  and  _540
REMARK  213  A    between atoms: _540  and  _541
REMARK  214  A    between atoms: _546  and  _548
REMARK  215  A    between atoms: _548  and  _549
REMARK  216  A    between atoms: _548  and  _551
REMARK  217  A    between atoms: _551  and  _552
REMARK                            x       y       z     vdW  Elec       q    Type
REMARK                         _______ _______ _______ _____ _____    ______ ____
ROOT
ATOM      1  CA  HIS A   2     -41.314   0.682  -2.703  0.00  0.00    +0.143 C 
ENDROOT
BRANCH   1   3
ATOM      2  C   ALA A   1     -39.087   1.000  -1.795  0.00  0.00    +0.238 C 
ATOM      3  N   HIS A   2     -40.397   0.951  -1.607  0.00  0.00    -0.298 N 
ATOM      4  H   HIS A   2     -40.779   1.109  -0.653  0.00  0.00    +0.150 HD
ATOM      5  O   ALA A   1     -38.574   0.788  -2.885  0.00  0.00    -0.274 OA
BRANCH   2   6
ATOM      6  CA  ALA A   1     -38.231   1.371  -0.578  0.00  0.00    +0.145 C 
ATOM      7  CB  ALA A   1     -37.809   0.129   0.203  0.00  0.00    +0.028 C 
BRANCH   6   8
ATOM      8  N   ALA A   1     -38.919   2.317   0.289  0.00  0.00    -0.238 NA
ATOM      9  H   ALA A   1     -39.029   2.098   1.300  0.00  0.00    +0.142 HD
ENDBRANCH   6   8
ENDBRANCH   2   6
ENDBRANCH   1   3
BRANCH   1  10
ATOM     10  C   HIS A   2     -42.390   1.770  -2.843  0.00  0.00    +0.227 C 
ATOM     11  O   HIS A   2     -43.467   1.517  -3.384  0.00  0.00    -0.286 OA
ENDBRANCH   1  10
BRANCH   1  12
ATOM     12  CB  HIS A   2     -41.960  -0.689  -2.473  0.00  0.00    +0.075 C 
BRANCH  12  13
ATOM     13  CG  HIS A   2     -40.956  -1.798  -2.416  0.00  0.00    +0.082 A 
ATOM     14  ND1 HIS A   2     -40.375  -2.209  -1.239  0.00  0.00    -0.227 NA
ATOM     15  CE1 HIS A   2     -39.495  -3.165  -1.502  0.00  0.00    +0.199 A 
ATOM     16  NE2 HIS A   2     -39.471  -3.364  -2.806  0.00  0.00    -0.221 NA
ATOM     17  CD2 HIS A   2     -40.365  -2.507  -3.409  0.00  0.00    +0.115 A 
ENDBRANCH  12  13
ENDBRANCH   1  12
TORSDOF 6
REMARK  Name = ../refined-set-2016/3v78/3v78_pocket.pdb
REMARK  217 active torsions:
REMARK  status: ('A' for Active; 'I' for Inactive)
REMARK    1  A    between atoms: _1  and  _3
REMARK    2  A    between atoms: _3  and  _4
REMARK    3  A    between atoms: _7  and  _9
REMARK    4  A    between atoms: _9  and  _10
REMARK    5  A    between atoms: _13  and  _15
REMARK    6  A    between atoms: _15  and  _16
REMARK    7  A    between atoms: _15  and  _18
REMARK    8  A    between atoms: _18  and  _19
REMARK    9  A    between atoms: _24  and  _26
REMARK   10  A    between atoms: _26  and  _27
REMARK   11  A    between atoms: _30  and  _32
REMARK   12  A    between atoms: _32  and  _33
REMARK   13  A    between atoms: _32  and  _35
REMARK   14  A    between atoms: _35  and  _36
REMARK   15  A    between atoms: _38  and  _40
REMARK   16  A    between atoms: _40  and  _41
REMARK   17  A    between atoms: _44  and  _46
REMARK   18  A    between atoms: _46  and  _47
REMARK   19  A    between atoms: _46  and  _49
REMARK   20  A    between atoms: _49  and  _50
REMARK   21  A    between atoms: _53  and  _55
REMARK   22  A    between atoms: _55  and  _56
REMARK   23  A    between atoms: _55  and  _58
REMARK   24  A    between atoms: _58  and  _59
REMARK   25  A    between atoms: _62  and  _64
REMARK   26  A    between atoms: _64  and  _65
REMARK   27  A    between atoms: _64  and  _67
REMARK   28  A    between atoms: _67  and  _68
REMARK   29  A    between atoms: _71  and  _73
REMARK   30  A    between atoms: _73  and  _74
REMARK   31  A    between atoms: _77  and  _79
REMARK   32  A    between atoms: _79  and  _80
REMARK   33  A    between atoms: _79  and  _82
REMARK   34  A    between atoms: _82  and  _83
REMARK   35  A    between atoms: _83  and  _84
REMARK   36  A    between atoms: _89  and  _91
REMARK   37  A    between atoms: _91  and  _92
REMARK   38  A    between atoms: _91  and  _94
REMARK   39  A    between atoms: _94  and  _95
REMARK   40  A    between atoms: _105  and  _107
REMARK   41  A    between atoms: _107  and  _108
REMARK   42  A    between atoms: _107  and  _110
REMARK   43  A    between atoms: _110  and  _111
REMARK   44  A    between atoms: _114  and  _116
REMARK   45  A    between atoms: _116  and  _117
REMARK   46  A    between atoms: _120  and  _122
REMARK   47  A    between atoms: _122  and  _123
REMARK   48  A    between atoms: _122  and  _125
REMARK   49  A    between atoms: _125  and  _126
REMARK   50  A    between atoms: _129  and  _131
REMARK   51  A    between atoms: _131  and  _132
REMARK   52  A    between atoms: _131  and  _134
REMARK   53  A    between atoms: _134  and  _135
REMARK   54  A    between atoms: _138  and  _140
REMARK   55  A    between atoms: _140  and  _141
REMARK   56  A    between atoms: _140  and  _143
REMARK   57  A    between atoms: _143  and  _144
REMARK   58  A    between atoms: _147  and  _149
REMARK   59  A    between atoms: _149  and  _150
REMARK   60  A    between atoms: _149  and  _152
REMARK   61  A    between atoms: _155  and  _157
REMARK   62  A    between atoms: _157  and  _158
REMARK   63  A    between atoms: _157  and  _160
REMARK   64  A    between atoms: _160  and  _161
REMARK   65  A    between atoms: _166  and  _167
REMARK   66  A    between atoms: _169  and  _171
REMARK   67  A    between atoms: _171  and  _172
REMARK   68  A    between atoms: _171  and  _174
REMARK   69  A    between atoms: _174  and  _175
REMARK   70  A    between atoms: _178  and  _180
REMARK   71  A    between atoms: _180  and  _181
REMARK   72  A    between atoms: _180  and  _183
REMARK   73  A    between atoms: _183  and  _184
REMARK   74  A    between atoms: _189  and  _190
REMARK   75  A    between atoms: _192  and  _194
REMARK   76  A    between atoms: _194  and  _195
REMARK   77  A    between atoms: _194  and  _197
REMARK   78  A    between atoms: _197  and  _198
REMARK   79  A    between atoms: _198  and  _199
REMARK   80  A    between atoms: _199  and  _200
REMARK   81  A    between atoms: _209  and  _211
REMARK   82  A    between atoms: _211  and  _212
REMARK   83  A    between atoms: _211  and  _214
REMARK   84  A    between atoms: _214  and  _215
REMARK   85  A    between atoms: _218  and  _220
REMARK   86  A    between atoms: _220  and  _221
REMARK   87  A    between atoms: _220  and  _223
REMARK   88  A    between atoms: _223  and  _224
REMARK   89  A    between atoms: _227  and  _229
REMARK   90  A    between atoms: _229  and  _230
REMARK   91  A    between atoms: _229  and  _232
REMARK   92  A    between atoms: _232  and  _233
REMARK   93  A    between atoms: _238  and  _240
REMARK   94  A    between atoms: _240  and  _241
REMARK   95  A    between atoms: _240  and  _243
REMARK   96  A    between atoms: _243  and  _244
REMARK   97  A    between atoms: _244  and  _245
REMARK   98  A    between atoms: _248  and  _250
REMARK   99  A    between atoms: _250  and  _251
REMARK  100  A    between atoms: _250  and  _253
REMARK  101  A    between atoms: _253  and  _254
REMARK  102  A    between atoms: _257  and  _259
REMARK  103  A    between atoms: _259  and  _260
REMARK  104  A    between atoms: _259  and  _262
REMARK  105  A    between atoms: _262  and  _263
REMARK  106  A    between atoms: _268  and  _269
REMARK  107  A    between atoms: _271  and  _273
REMARK  108  A    between atoms: _273  and  _274
REMARK  109  A    between atoms: _273  and  _276
REMARK  110  A    between atoms: _276  and  _277
REMARK  111  A    between atoms: _277  and  _278
REMARK  112  A    between atoms: _280  and  _282
REMARK  113  A    between atoms: _282  and  _283
REMARK  114  A    between atoms: _286  and  _288
REMARK  115  A    between atoms: _288  and  _289
REMARK  116  A    between atoms: _288  and  _291
REMARK  117  A    between atoms: _291  and  _292
REMARK  118  A    between atoms: _295  and  _297
REMARK  119  A    between atoms: _297  and  _298
REMARK  120  A    between atoms: _301  and  _303
REMARK  121  A    between atoms: _303  and  _304
REMARK  122  A    between atoms: _303  and  _306
REMARK  123  A    between atoms: _306  and  _307
REMARK  124  A    between atoms: _307  and  _308
REMARK  125  A    between atoms: _308  and  _309
REMARK  126  A    between atoms: _318  and  _320
REMARK  127  A    between atoms: _320  and  _321
REMARK  128  A    between atoms: _320  and  _323
REMARK  129  A    between atoms: _323  and  _324
REMARK  130  A    between atoms: _327  and  _329
REMARK  131  A    between atoms: _329  and  _330
REMARK  132  A    between atoms: _329  and  _332
REMARK  133  A    between atoms: _332  and  _333
REMARK  134  A    between atoms: _344  and  _345
REMARK  135  A    between atoms: _350  and  _352
REMARK  136  A    between atoms: _352  and  _353
REMARK  137  A    between atoms: _355  and  _357
REMARK  138  A    between atoms: _357  and  _358
REMARK  139  A    between atoms: _357  and  _360
REMARK  140  A    between atoms: _360  and  _361
REMARK  141  A    between atoms: _364  and  _366
REMARK  142  A    between atoms: _366  and  _367
REMARK  143  A    between atoms: _366  and  _369
REMARK  144  A    between atoms: _372  and  _374
REMARK  145  A    between atoms: _374  and  _375
REMARK  146  A    between atoms: _374  and  _377
REMARK  147  A    between atoms: _377  and  _378
REMARK  148  A    between atoms: _381  and  _383
REMARK  149  A    between atoms: _383  and  _384
REMARK  150  A    between atoms: _383  and  _386
REMARK  151  A    between atoms: _389  and  _391
REMARK  152  A    between atoms: _391  and  _392
REMARK  153  A    between atoms: _391  and  _394
REMARK  154  A    between atoms: _394  and  _395
REMARK  155  A    between atoms: _401  and  _403
REMARK  156  A    between atoms: _403  and  _404
REMARK  157  A    between atoms: _403  and  _406
REMARK  158  A    between atoms: _406  and  _407
REMARK  159  A    between atoms: _413  and  _415
REMARK  160  A    between atoms: _415  and  _416
REMARK  161  A    between atoms: _415  and  _418
REMARK  162  A    between atoms: _418  and  _419
REMARK  163  A    between atoms: _422  and  _424
REMARK  164  A    between atoms: _424  and  _425
REMARK  165  A    between atoms: _427  and  _429
REMARK  166  A    between atoms: _429  and  _430
REMARK  167  A    between atoms: _433  and  _435
REMARK  168  A    between atoms: _435  and  _436
REMARK  169  A    between atoms: _435  and  _438
REMARK  170  A    between atoms: _438  and  _439
REMARK  171  A    between atoms: _442  and  _444
REMARK  172  A    between atoms: _444  and  _445
REMARK  173  A    between atoms: _444  and  _447
REMARK  174  A    between atoms: _447  and  _448
REMARK  175  A    between atoms: _451  and  _453
REMARK  176  A    between atoms: _453  and  _454
REMARK  177  A    between atoms: _453  and  _456
REMARK  178  A    between atoms: _456  and  _457
REMARK  179  A    between atoms: _462  and  _464
REMARK  180  A    between atoms: _464  and  _465
REMARK  181  A    between atoms: _468  and  _470
REMARK  182  A    between atoms: _470  and  _471
REMARK  183  A    between atoms: _470  and  _473
REMARK  184  A    between atoms: _473  and  _474
REMARK  185  A    between atoms: _477  and  _479
REMARK  186  A    between atoms: _479  and  _480
REMARK  187  A    between atoms: _479  and  _482
REMARK  188  A    between atoms: _482  and  _483
REMARK  189  A    between atoms: _486  and  _488
REMARK  190  A    between atoms: _488  and  _489
REMARK  191  A    between atoms: _488  and  _491
REMARK  192  A    between atoms: _491  and  _492
REMARK  193  A    between atoms: _492  and  _493
REMARK  194  A    between atoms: _495  and  _497
REMARK  195  A    between atoms: _497  and  _498
REMARK  196  A    between atoms: _501  and  _503
REMARK  197  A    between atoms: _503  and  _504
REMARK  198  A    between atoms: _503  and  _506
REMARK  199  A    between atoms: _506  and  _507
REMARK  200  A    between atoms: _512  and  _514
REMARK  201  A    between atoms: _514  and  _515
REMARK  202  A    between atoms: _514  and  _517
REMARK  203  A    between atoms: _517  and  _518
REMARK  204  A    between atoms: _521  and  _523
REMARK  205  A    between atoms: _523  and  _524
REMARK  206  A    between atoms: _526  and  _528
REMARK  207  A    between atoms: _528  and  _529
REMARK  208  A    between atoms: _528  and  _531
REMARK  209  A    between atoms: _531  and  _532
REMARK  210  A    between atoms: _535  and  _537
REMARK  211  A    between atoms: _537  and  _538
REMARK  212  A    between atoms: _537  and  _540
REMARK  213  A    between atoms: _540  and  _541
REMARK  214  A    between atoms: _546  and  _548
REMARK  215  A    between atoms: _548  and  _549
REMARK  216  A    between atoms: _548  and  _551
REMARK  217  A    between atoms: _551  and  _552
REMARK                            x       y       z     vdW  Elec       q    Type
REMARK                         _______ _______ _______ _____ _____    ______ ____
ROOT
ATOM      1  CA  ASP A   1     -28.716   1.146   5.792  0.00  0.00    +0.156 C 
ENDROOT
BRANCH   1   2
ATOM      2  C   ASP A   1     -28.929  -0.299   6.199  0.00  0.00    +0.239 C 
ATOM      3  O   ASP A   1     -29.980  -0.657   6.738  0.00  0.00    -0.274 OA
ATOM      4  N   GLY A   2     -27.914  -1.121   5.925  0.00  0.00    -0.297 N 
ATOM      5  H   GLY A   2     -27.096  -0.754   5.398  0.00  0.00    +0.150 HD
BRANCH   4   6
ATOM      6  CA  GLY A   2     -27.917  -2.506   6.338  0.00  0.00    +0.163 C 
BRANCH   6   7
ATOM      7  C   GLY A   2     -27.935  -2.653   7.848  0.00  0.00    +0.229 C 
ATOM      8  O   GLY A   2     -28.685  -3.475   8.391  0.00  0.00    -0.286 OA
ENDBRANCH   6   7
ENDBRANCH   4   6
ENDBRANCH   1   2
BRANCH   1   9
ATOM      9  N   ASP A   1     -27.359   1.532   6.162  0.00  0.00    -0.238 NA
ATOM     10  H   ASP A   1     -26.709   1.863   5.421  0.00  0.00    +0.142 HD
ENDBRANCH   1   9
BRANCH   1  11
ATOM     11  CB  ASP A   1     -28.937   1.293   4.286  0.00  0.00    +0.140 C 
BRANCH  11  12
ATOM     12  CG  ASP A   1     -29.311   2.710   3.882  0.00  0.00    +0.367 C 
ATOM     13  OD2 ASP A   1     -28.944   3.657   4.615  0.00  0.00    -0.246 OA
ATOM     14  OD1 ASP A   1     -29.983   2.878   2.841  0.00  0.00    -0.246 OA
ENDBRANCH  11  12
ENDBRANCH   1  11
TORSDOF 6
REMARK  Name = ../refined-set-2016/3v78/3v78_pocket.pdb
REMARK  217 active torsions:
REMARK  status: ('A' for Active; 'I' for Inactive)
REMARK    1  A    between atoms: _1  and  _3
REMARK    2  A    between atoms: _3  and  _4
REMARK    3  A    between atoms: _7  and  _9
REMARK    4  A    between atoms: _9  and  _10
REMARK    5  A    between atoms: _13  and  _15
REMARK    6  A    between atoms: _15  and  _16
REMARK    7  A    between atoms: _15  and  _18
REMARK    8  A    between atoms: _18  and  _19
REMARK    9  A    between atoms: _24  and  _26
REMARK   10  A    between atoms: _26  and  _27
REMARK   11  A    between atoms: _30  and  _32
REMARK   12  A    between atoms: _32  and  _33
REMARK   13  A    between atoms: _32  and  _35
REMARK   14  A    between atoms: _35  and  _36
REMARK   15  A    between atoms: _38  and  _40
REMARK   16  A    between atoms: _40  and  _41
REMARK   17  A    between atoms: _44  and  _46
REMARK   18  A    between atoms: _46  and  _47
REMARK   19  A    between atoms: _46  and  _49
REMARK   20  A    between atoms: _49  and  _50
REMARK   21  A    between atoms: _53  and  _55
REMARK   22  A    between atoms: _55  and  _56
REMARK   23  A    between atoms: _55  and  _58
REMARK   24  A    between atoms: _58  and  _59
REMARK   25  A    between atoms: _62  and  _64
REMARK   26  A    between atoms: _64  and  _65
REMARK   27  A    between atoms: _64  and  _67
REMARK   28  A    between atoms: _67  and  _68
REMARK   29  A    between atoms: _71  and  _73
REMARK   30  A    between atoms: _73  and  _74
REMARK   31  A    between atoms: _77  and  _79
REMARK   32  A    between atoms: _79  and  _80
REMARK   33  A    between atoms: _79  and  _82
REMARK   34  A    between atoms: _82  and  _83
REMARK   35  A    between atoms: _83  and  _84
REMARK   36  A    between atoms: _89  and  _91
REMARK   37  A    between atoms: _91  and  _92
REMARK   38  A    between atoms: _91  and  _94
REMARK   39  A    between atoms: _94  and  _95
REMARK   40  A    between atoms: _105  and  _107
REMARK   41  A    between atoms: _107  and  _108
REMARK   42  A    between atoms: _107  and  _110
REMARK   43  A    between atoms: _110  and  _111
REMARK   44  A    between atoms: _114  and  _116
REMARK   45  A    between atoms: _116  and  _117
REMARK   46  A    between atoms: _120  and  _122
REMARK   47  A    between atoms: _122  and  _123
REMARK   48  A    between atoms: _122  and  _125
REMARK   49  A    between atoms: _125  and  _126
REMARK   50  A    between atoms: _129  and  _131
REMARK   51  A    between atoms: _131  and  _132
REMARK   52  A    between atoms: _131  and  _134
REMARK   53  A    between atoms: _134  and  _135
REMARK   54  A    between atoms: _138  and  _140
REMARK   55  A    between atoms: _140  and  _141
REMARK   56  A    between atoms: _140  and  _143
REMARK   57  A    between atoms: _143  and  _144
REMARK   58  A    between atoms: _147  and  _149
REMARK   59  A    between atoms: _149  and  _150
REMARK   60  A    between atoms: _149  and  _152
REMARK   61  A    between atoms: _155  and  _157
REMARK   62  A    between atoms: _157  and  _158
REMARK   63  A    between atoms: _157  and  _160
REMARK   64  A    between atoms: _160  and  _161
REMARK   65  A    between atoms: _166  and  _167
REMARK   66  A    between atoms: _169  and  _171
REMARK   67  A    between atoms: _171  and  _172
REMARK   68  A    between atoms: _171  and  _174
REMARK   69  A    between atoms: _174  and  _175
REMARK   70  A    between atoms: _178  and  _180
REMARK   71  A    between atoms: _180  and  _181
REMARK   72  A    between atoms: _180  and  _183
REMARK   73  A    between atoms: _183  and  _184
REMARK   74  A    between atoms: _189  and  _190
REMARK   75  A    between atoms: _192  and  _194
REMARK   76  A    between atoms: _194  and  _195
REMARK   77  A    between atoms: _194  and  _197
REMARK   78  A    between atoms: _197  and  _198
REMARK   79  A    between atoms: _198  and  _199
REMARK   80  A    between atoms: _199  and  _200
REMARK   81  A    between atoms: _209  and  _211
REMARK   82  A    between atoms: _211  and  _212
REMARK   83  A    between atoms: _211  and  _214
REMARK   84  A    between atoms: _214  and  _215
REMARK   85  A    between atoms: _218  and  _220
REMARK   86  A    between atoms: _220  and  _221
REMARK   87  A    between atoms: _220  and  _223
REMARK   88  A    between atoms: _223  and  _224
REMARK   89  A    between atoms: _227  and  _229
REMARK   90  A    between atoms: _229  and  _230
REMARK   91  A    between atoms: _229  and  _232
REMARK   92  A    between atoms: _232  and  _233
REMARK   93  A    between atoms: _238  and  _240
REMARK   94  A    between atoms: _240  and  _241
REMARK   95  A    between atoms: _240  and  _243
REMARK   96  A    between atoms: _243  and  _244
REMARK   97  A    between atoms: _244  and  _245
REMARK   98  A    between atoms: _248  and  _250
REMARK   99  A    between atoms: _250  and  _251
REMARK  100  A    between atoms: _250  and  _253
REMARK  101  A    between atoms: _253  and  _254
REMARK  102  A    between atoms: _257  and  _259
REMARK  103  A    between atoms: _259  and  _260
REMARK  104  A    between atoms: _259  and  _262
REMARK  105  A    between atoms: _262  and  _263
REMARK  106  A    between atoms: _268  and  _269
REMARK  107  A    between atoms: _271  and  _273
REMARK  108  A    between atoms: _273  and  _274
REMARK  109  A    between atoms: _273  and  _276
REMARK  110  A    between atoms: _276  and  _277
REMARK  111  A    between atoms: _277  and  _278
REMARK  112  A    between atoms: _280  and  _282
REMARK  113  A    between atoms: _282  and  _283
REMARK  114  A    between atoms: _286  and  _288
REMARK  115  A    between atoms: _288  and  _289
REMARK  116  A    between atoms: _288  and  _291
REMARK  117  A    between atoms: _291  and  _292
REMARK  118  A    between atoms: _295  and  _297
REMARK  119  A    between atoms: _297  and  _298
REMARK  120  A    between atoms: _301  and  _303
REMARK  121  A    between atoms: _303  and  _304
REMARK  122  A    between atoms: _303  and  _306
REMARK  123  A    between atoms: _306  and  _307
REMARK  124  A    between atoms: _307  and  _308
REMARK  125  A    between atoms: _308  and  _309
REMARK  126  A    between atoms: _318  and  _320
REMARK  127  A    between atoms: _320  and  _321
REMARK  128  A    between atoms: _320  and  _323
REMARK  129  A    between atoms: _323  and  _324
REMARK  130  A    between atoms: _327  and  _329
REMARK  131  A    between atoms: _329  and  _330
REMARK  132  A    between atoms: _329  and  _332
REMARK  133  A    between atoms: _332  and  _333
REMARK  134  A    between atoms: _344  and  _345
REMARK  135  A    between atoms: _350  and  _352
REMARK  136  A    between atoms: _352  and  _353
REMARK  137  A    between atoms: _355  and  _357
REMARK  138  A    between atoms: _357  and  _358
REMARK  139  A    between atoms: _357  and  _360
REMARK  140  A    between atoms: _360  and  _361
REMARK  141  A    between atoms: _364  and  _366
REMARK  142  A    between atoms: _366  and  _367
REMARK  143  A    between atoms: _366  and  _369
REMARK  144  A    between atoms: _372  and  _374
REMARK  145  A    between atoms: _374  and  _375
REMARK  146  A    between atoms: _374  and  _377
REMARK  147  A    between atoms: _377  and  _378
REMARK  148  A    between atoms: _381  and  _383
REMARK  149  A    between atoms: _383  and  _384
REMARK  150  A    between atoms: _383  and  _386
REMARK  151  A    between atoms: _389  and  _391
REMARK  152  A    between atoms: _391  and  _392
REMARK  153  A    between atoms: _391  and  _394
REMARK  154  A    between atoms: _394  and  _395
REMARK  155  A    between atoms: _401  and  _403
REMARK  156  A    between atoms: _403  and  _404
REMARK  157  A    between atoms: _403  and  _406
REMARK  158  A    between atoms: _406  and  _407
REMARK  159  A    between atoms: _413  and  _415
REMARK  160  A    between atoms: _415  and  _416
REMARK  161  A    between atoms: _415  and  _418
REMARK  162  A    between atoms: _418  and  _419
REMARK  163  A    between atoms: _422  and  _424
REMARK  164  A    between atoms: _424  and  _425
REMARK  165  A    between atoms: _427  and  _429
REMARK  166  A    between atoms: _429  and  _430
REMARK  167  A    between atoms: _433  and  _435
REMARK  168  A    between atoms: _435  and  _436
REMARK  169  A    between atoms: _435  and  _438
REMARK  170  A    between atoms: _438  and  _439
REMARK  171  A    between atoms: _442  and  _444
REMARK  172  A    between atoms: _444  and  _445
REMARK  173  A    between atoms: _444  and  _447
REMARK  174  A    between atoms: _447  and  _448
REMARK  175  A    between atoms: _451  and  _453
REMARK  176  A    between atoms: _453  and  _454
REMARK  177  A    between atoms: _453  and  _456
REMARK  178  A    between atoms: _456  and  _457
REMARK  179  A    between atoms: _462  and  _464
REMARK  180  A    between atoms: _464  and  _465
REMARK  181  A    between atoms: _468  and  _470
REMARK  182  A    between atoms: _470  and  _471
REMARK  183  A    between atoms: _470  and  _473
REMARK  184  A    between atoms: _473  and  _474
REMARK  185  A    between atoms: _477  and  _479
REMARK  186  A    between atoms: _479  and  _480
REMARK  187  A    between atoms: _479  and  _482
REMARK  188  A    between atoms: _482  and  _483
REMARK  189  A    between atoms: _486  and  _488
REMARK  190  A    between atoms: _488  and  _489
REMARK  191  A    between atoms: _488  and  _491
REMARK  192  A    between atoms: _491  and  _492
REMARK  193  A    between atoms: _492  and  _493
REMARK  194  A    between atoms: _495  and  _497
REMARK  195  A    between atoms: _497  and  _498
REMARK  196  A    between atoms: _501  and  _503
REMARK  197  A    between atoms: _503  and  _504
REMARK  198  A    between atoms: _503  and  _506
REMARK  199  A    between atoms: _506  and  _507
REMARK  200  A    between atoms: _512  and  _514
REMARK  201  A    between atoms: _514  and  _515
REMARK  202  A    between atoms: _514  and  _517
REMARK  203  A    between atoms: _517  and  _518
REMARK  204  A    between atoms: _521  and  _523
REMARK  205  A    between atoms: _523  and  _524
REMARK  206  A    between atoms: _526  and  _528
REMARK  207  A    between atoms: _528  and  _529
REMARK  208  A    between atoms: _528  and  _531
REMARK  209  A    between atoms: _531  and  _532
REMARK  210  A    between atoms: _535  and  _537
REMARK  211  A    between atoms: _537  and  _538
REMARK  212  A    between atoms: _537  and  _540
REMARK  213  A    between atoms: _540  and  _541
REMARK  214  A    between atoms: _546  and  _548
REMARK  215  A    between atoms: _548  and  _549
REMARK  216  A    between atoms: _548  and  _551
REMARK  217  A    between atoms: _551  and  _552
REMARK                            x       y       z     vdW  Elec       q    Type
REMARK                         _______ _______ _______ _____ _____    ______ ____
ROOT
ATOM      1  C   LEU A   1     -32.194  -4.312   9.465  0.00  0.00    +0.238 C 
ATOM      2  O   LEU A   1     -33.034  -4.957  10.098  0.00  0.00    -0.274 OA
ATOM      3  N   HIS A   2     -30.931  -4.714   9.335  0.00  0.00    -0.298 N 
ATOM      4  H   HIS A   2     -30.257  -4.128   8.802  0.00  0.00    +0.150 HD
ENDROOT
BRANCH   1   5
ATOM      5  CA  LEU A   1     -32.562  -2.969   8.804  0.00  0.00    +0.145 C 
BRANCH   5   6
ATOM      6  N   LEU A   1     -31.626  -1.928   9.224  0.00  0.00    -0.238 NA
ATOM      7  H   LEU A   1     -31.109  -1.384   8.504  0.00  0.00    +0.142 HD
ENDBRANCH   5   6
BRANCH   5   8
ATOM      8  CB  LEU A   1     -32.579  -3.081   7.277  0.00  0.00    +0.026 C 
BRANCH   8   9
ATOM      9  CG  LEU A   1     -33.477  -4.154   6.673  0.00  0.00    +0.002 C 
ATOM     10  CD2 LEU A   1     -34.897  -4.083   7.228  0.00  0.00    +0.000 C 
ATOM     11  CD1 LEU A   1     -33.492  -4.053   5.154  0.00  0.00    +0.000 C 
ENDBRANCH   8   9
ENDBRANCH   5   8
ENDBRANCH   1   5
BRANCH   3  12
ATOM     12  CA  HIS A   2     -30.480  -5.978   9.937  0.00  0.00    +0.143 C 
BRANCH  12  13
ATOM     13  C   HIS A   2     -30.722  -6.026  11.462  0.00  0.00    +0.227 C 
ATOM     14  O   HIS A   2     -31.232  -7.020  11.978  0.00  0.00    -0.286 OA
ENDBRANCH  12  13
BRANCH  12  15
ATOM     15  CB  HIS A   2     -29.001  -6.237   9.628  0.00  0.00    +0.075 C 
BRANCH  15  16
ATOM     16  CG  HIS A   2     -28.515  -7.587  10.061  0.00  0.00    +0.082 A 
ATOM     17  ND1 HIS A   2     -27.998  -7.827  11.314  0.00  0.00    -0.227 NA
ATOM     18  CE1 HIS A   2     -27.651  -9.100  11.411  0.00  0.00    +0.199 A 
ATOM     19  NE2 HIS A   2     -27.916  -9.692  10.260  0.00  0.00    -0.221 NA
ATOM     20  CD2 HIS A   2     -28.460  -8.770   9.397  0.00  0.00    +0.115 A 
ENDBRANCH  15  16
ENDBRANCH  12  15
ENDBRANCH   3  12
TORSDOF 8
REMARK  Name = ../refined-set-2016/3v78/3v78_pocket.pdb
REMARK  217 active torsions:
REMARK  status: ('A' for Active; 'I' for Inactive)
REMARK    1  A    between atoms: _1  and  _3
REMARK    2  A    between atoms: _3  and  _4
REMARK    3  A    between atoms: _7  and  _9
REMARK    4  A    between atoms: _9  and  _10
REMARK    5  A    between atoms: _13  and  _15
REMARK    6  A    between atoms: _15  and  _16
REMARK    7  A    between atoms: _15  and  _18
REMARK    8  A    between atoms: _18  and  _19
REMARK    9  A    between atoms: _24  and  _26
REMARK   10  A    between atoms: _26  and  _27
REMARK   11  A    between atoms: _30  and  _32
REMARK   12  A    between atoms: _32  and  _33
REMARK   13  A    between atoms: _32  and  _35
REMARK   14  A    between atoms: _35  and  _36
REMARK   15  A    between atoms: _38  and  _40
REMARK   16  A    between atoms: _40  and  _41
REMARK   17  A    between atoms: _44  and  _46
REMARK   18  A    between atoms: _46  and  _47
REMARK   19  A    between atoms: _46  and  _49
REMARK   20  A    between atoms: _49  and  _50
REMARK   21  A    between atoms: _53  and  _55
REMARK   22  A    between atoms: _55  and  _56
REMARK   23  A    between atoms: _55  and  _58
REMARK   24  A    between atoms: _58  and  _59
REMARK   25  A    between atoms: _62  and  _64
REMARK   26  A    between atoms: _64  and  _65
REMARK   27  A    between atoms: _64  and  _67
REMARK   28  A    between atoms: _67  and  _68
REMARK   29  A    between atoms: _71  and  _73
REMARK   30  A    between atoms: _73  and  _74
REMARK   31  A    between atoms: _77  and  _79
REMARK   32  A    between atoms: _79  and  _80
REMARK   33  A    between atoms: _79  and  _82
REMARK   34  A    between atoms: _82  and  _83
REMARK   35  A    between atoms: _83  and  _84
REMARK   36  A    between atoms: _89  and  _91
REMARK   37  A    between atoms: _91  and  _92
REMARK   38  A    between atoms: _91  and  _94
REMARK   39  A    between atoms: _94  and  _95
REMARK   40  A    between atoms: _105  and  _107
REMARK   41  A    between atoms: _107  and  _108
REMARK   42  A    between atoms: _107  and  _110
REMARK   43  A    between atoms: _110  and  _111
REMARK   44  A    between atoms: _114  and  _116
REMARK   45  A    between atoms: _116  and  _117
REMARK   46  A    between atoms: _120  and  _122
REMARK   47  A    between atoms: _122  and  _123
REMARK   48  A    between atoms: _122  and  _125
REMARK   49  A    between atoms: _125  and  _126
REMARK   50  A    between atoms: _129  and  _131
REMARK   51  A    between atoms: _131  and  _132
REMARK   52  A    between atoms: _131  and  _134
REMARK   53  A    between atoms: _134  and  _135
REMARK   54  A    between atoms: _138  and  _140
REMARK   55  A    between atoms: _140  and  _141
REMARK   56  A    between atoms: _140  and  _143
REMARK   57  A    between atoms: _143  and  _144
REMARK   58  A    between atoms: _147  and  _149
REMARK   59  A    between atoms: _149  and  _150
REMARK   60  A    between atoms: _149  and  _152
REMARK   61  A    between atoms: _155  and  _157
REMARK   62  A    between atoms: _157  and  _158
REMARK   63  A    between atoms: _157  and  _160
REMARK   64  A    between atoms: _160  and  _161
REMARK   65  A    between atoms: _166  and  _167
REMARK   66  A    between atoms: _169  and  _171
REMARK   67  A    between atoms: _171  and  _172
REMARK   68  A    between atoms: _171  and  _174
REMARK   69  A    between atoms: _174  and  _175
REMARK   70  A    between atoms: _178  and  _180
REMARK   71  A    between atoms: _180  and  _181
REMARK   72  A    between atoms: _180  and  _183
REMARK   73  A    between atoms: _183  and  _184
REMARK   74  A    between atoms: _189  and  _190
REMARK   75  A    between atoms: _192  and  _194
REMARK   76  A    between atoms: _194  and  _195
REMARK   77  A    between atoms: _194  and  _197
REMARK   78  A    between atoms: _197  and  _198
REMARK   79  A    between atoms: _198  and  _199
REMARK   80  A    between atoms: _199  and  _200
REMARK   81  A    between atoms: _209  and  _211
REMARK   82  A    between atoms: _211  and  _212
REMARK   83  A    between atoms: _211  and  _214
REMARK   84  A    between atoms: _214  and  _215
REMARK   85  A    between atoms: _218  and  _220
REMARK   86  A    between atoms: _220  and  _221
REMARK   87  A    between atoms: _220  and  _223
REMARK   88  A    between atoms: _223  and  _224
REMARK   89  A    between atoms: _227  and  _229
REMARK   90  A    between atoms: _229  and  _230
REMARK   91  A    between atoms: _229  and  _232
REMARK   92  A    between atoms: _232  and  _233
REMARK   93  A    between atoms: _238  and  _240
REMARK   94  A    between atoms: _240  and  _241
REMARK   95  A    between atoms: _240  and  _243
REMARK   96  A    between atoms: _243  and  _244
REMARK   97  A    between atoms: _244  and  _245
REMARK   98  A    between atoms: _248  and  _250
REMARK   99  A    between atoms: _250  and  _251
REMARK  100  A    between atoms: _250  and  _253
REMARK  101  A    between atoms: _253  and  _254
REMARK  102  A    between atoms: _257  and  _259
REMARK  103  A    between atoms: _259  and  _260
REMARK  104  A    between atoms: _259  and  _262
REMARK  105  A    between atoms: _262  and  _263
REMARK  106  A    between atoms: _268  and  _269
REMARK  107  A    between atoms: _271  and  _273
REMARK  108  A    between atoms: _273  and  _274
REMARK  109  A    between atoms: _273  and  _276
REMARK  110  A    between atoms: _276  and  _277
REMARK  111  A    between atoms: _277  and  _278
REMARK  112  A    between atoms: _280  and  _282
REMARK  113  A    between atoms: _282  and  _283
REMARK  114  A    between atoms: _286  and  _288
REMARK  115  A    between atoms: _288  and  _289
REMARK  116  A    between atoms: _288  and  _291
REMARK  117  A    between atoms: _291  and  _292
REMARK  118  A    between atoms: _295  and  _297
REMARK  119  A    between atoms: _297  and  _298
REMARK  120  A    between atoms: _301  and  _303
REMARK  121  A    between atoms: _303  and  _304
REMARK  122  A    between atoms: _303  and  _306
REMARK  123  A    between atoms: _306  and  _307
REMARK  124  A    between atoms: _307  and  _308
REMARK  125  A    between atoms: _308  and  _309
REMARK  126  A    between atoms: _318  and  _320
REMARK  127  A    between atoms: _320  and  _321
REMARK  128  A    between atoms: _320  and  _323
REMARK  129  A    between atoms: _323  and  _324
REMARK  130  A    between atoms: _327  and  _329
REMARK  131  A    between atoms: _329  and  _330
REMARK  132  A    between atoms: _329  and  _332
REMARK  133  A    between atoms: _332  and  _333
REMARK  134  A    between atoms: _344  and  _345
REMARK  135  A    between atoms: _350  and  _352
REMARK  136  A    between atoms: _352  and  _353
REMARK  137  A    between atoms: _355  and  _357
REMARK  138  A    between atoms: _357  and  _358
REMARK  139  A    between atoms: _357  and  _360
REMARK  140  A    between atoms: _360  and  _361
REMARK  141  A    between atoms: _364  and  _366
REMARK  142  A    between atoms: _366  and  _367
REMARK  143  A    between atoms: _366  and  _369
REMARK  144  A    between atoms: _372  and  _374
REMARK  145  A    between atoms: _374  and  _375
REMARK  146  A    between atoms: _374  and  _377
REMARK  147  A    between atoms: _377  and  _378
REMARK  148  A    between atoms: _381  and  _383
REMARK  149  A    between atoms: _383  and  _384
REMARK  150  A    between atoms: _383  and  _386
REMARK  151  A    between atoms: _389  and  _391
REMARK  152  A    between atoms: _391  and  _392
REMARK  153  A    between atoms: _391  and  _394
REMARK  154  A    between atoms: _394  and  _395
REMARK  155  A    between atoms: _401  and  _403
REMARK  156  A    between atoms: _403  and  _404
REMARK  157  A    between atoms: _403  and  _406
REMARK  158  A    between atoms: _406  and  _407
REMARK  159  A    between atoms: _413  and  _415
REMARK  160  A    between atoms: _415  and  _416
REMARK  161  A    between atoms: _415  and  _418
REMARK  162  A    between atoms: _418  and  _419
REMARK  163  A    between atoms: _422  and  _424
REMARK  164  A    between atoms: _424  and  _425
REMARK  165  A    between atoms: _427  and  _429
REMARK  166  A    between atoms: _429  and  _430
REMARK  167  A    between atoms: _433  and  _435
REMARK  168  A    between atoms: _435  and  _436
REMARK  169  A    between atoms: _435  and  _438
REMARK  170  A    between atoms: _438  and  _439
REMARK  171  A    between atoms: _442  and  _444
REMARK  172  A    between atoms: _444  and  _445
REMARK  173  A    between atoms: _444  and  _447
REMARK  174  A    between atoms: _447  and  _448
REMARK  175  A    between atoms: _451  and  _453
REMARK  176  A    between atoms: _453  and  _454
REMARK  177  A    between atoms: _453  and  _456
REMARK  178  A    between atoms: _456  and  _457
REMARK  179  A    between atoms: _462  and  _464
REMARK  180  A    between atoms: _464  and  _465
REMARK  181  A    between atoms: _468  and  _470
REMARK  182  A    between atoms: _470  and  _471
REMARK  183  A    between atoms: _470  and  _473
REMARK  184  A    between atoms: _473  and  _474
REMARK  185  A    between atoms: _477  and  _479
REMARK  186  A    between atoms: _479  and  _480
REMARK  187  A    between atoms: _479  and  _482
REMARK  188  A    between atoms: _482  and  _483
REMARK  189  A    between atoms: _486  and  _488
REMARK  190  A    between atoms: _488  and  _489
REMARK  191  A    between atoms: _488  and  _491
REMARK  192  A    between atoms: _491  and  _492
REMARK  193  A    between atoms: _492  and  _493
REMARK  194  A    between atoms: _495  and  _497
REMARK  195  A    between atoms: _497  and  _498
REMARK  196  A    between atoms: _501  and  _503
REMARK  197  A    between atoms: _503  and  _504
REMARK  198  A    between atoms: _503  and  _506
REMARK  199  A    between atoms: _506  and  _507
REMARK  200  A    between atoms: _512  and  _514
REMARK  201  A    between atoms: _514  and  _515
REMARK  202  A    between atoms: _514  and  _517
REMARK  203  A    between atoms: _517  and  _518
REMARK  204  A    between atoms: _521  and  _523
REMARK  205  A    between atoms: _523  and  _524
REMARK  206  A    between atoms: _526  and  _528
REMARK  207  A    between atoms: _528  and  _529
REMARK  208  A    between atoms: _528  and  _531
REMARK  209  A    between atoms: _531  and  _532
REMARK  210  A    between atoms: _535  and  _537
REMARK  211  A    between atoms: _537  and  _538
REMARK  212  A    between atoms: _537  and  _540
REMARK  213  A    between atoms: _540  and  _541
REMARK  214  A    between atoms: _546  and  _548
REMARK  215  A    between atoms: _548  and  _549
REMARK  216  A    between atoms: _548  and  _551
REMARK  217  A    between atoms: _551  and  _552
REMARK                            x       y       z     vdW  Elec       q    Type
REMARK                         _______ _______ _______ _____ _____    ______ ____
ROOT
ATOM      1  CA  ILE A   1     -34.922  -7.816  11.579  0.00  0.00    +0.133 C 
ENDROOT
BRANCH   1   2
ATOM      2  N   ILE A   1     -34.484  -6.498  12.016  0.00  0.00    -0.239 NA
ATOM      3  H   ILE A   1     -33.804  -5.975  11.428  0.00  0.00    +0.142 HD
ENDBRANCH   1   2
BRANCH   1   4
ATOM      4  C   ILE A   1     -34.537  -8.930  12.560  0.00  0.00    +0.224 C 
ATOM      5  O   ILE A   1     -35.393  -9.710  13.002  0.00  0.00    -0.287 OA
ENDBRANCH   1   4
BRANCH   1   6
ATOM      6  CB  ILE A   1     -34.342  -8.158  10.198  0.00  0.00    +0.023 C 
ATOM      7  CG2 ILE A   1     -34.551  -9.633   9.882  0.00  0.00    +0.002 C 
BRANCH   6   8
ATOM      8  CG1 ILE A   1     -34.979  -7.271   9.122  0.00  0.00    +0.002 C 
ATOM      9  CD1 ILE A   1     -36.499  -7.384   9.047  0.00  0.00    +0.000 C 
ENDBRANCH   6   8
ENDBRANCH   1   6
TORSDOF 4
REMARK  Name = ../refined-set-2016/3v78/3v78_pocket.pdb
REMARK  217 active torsions:
REMARK  status: ('A' for Active; 'I' for Inactive)
REMARK    1  A    between atoms: _1  and  _3
REMARK    2  A    between atoms: _3  and  _4
REMARK    3  A    between atoms: _7  and  _9
REMARK    4  A    between atoms: _9  and  _10
REMARK    5  A    between atoms: _13  and  _15
REMARK    6  A    between atoms: _15  and  _16
REMARK    7  A    between atoms: _15  and  _18
REMARK    8  A    between atoms: _18  and  _19
REMARK    9  A    between atoms: _24  and  _26
REMARK   10  A    between atoms: _26  and  _27
REMARK   11  A    between atoms: _30  and  _32
REMARK   12  A    between atoms: _32  and  _33
REMARK   13  A    between atoms: _32  and  _35
REMARK   14  A    between atoms: _35  and  _36
REMARK   15  A    between atoms: _38  and  _40
REMARK   16  A    between atoms: _40  and  _41
REMARK   17  A    between atoms: _44  and  _46
REMARK   18  A    between atoms: _46  and  _47
REMARK   19  A    between atoms: _46  and  _49
REMARK   20  A    between atoms: _49  and  _50
REMARK   21  A    between atoms: _53  and  _55
REMARK   22  A    between atoms: _55  and  _56
REMARK   23  A    between atoms: _55  and  _58
REMARK   24  A    between atoms: _58  and  _59
REMARK   25  A    between atoms: _62  and  _64
REMARK   26  A    between atoms: _64  and  _65
REMARK   27  A    between atoms: _64  and  _67
REMARK   28  A    between atoms: _67  and  _68
REMARK   29  A    between atoms: _71  and  _73
REMARK   30  A    between atoms: _73  and  _74
REMARK   31  A    between atoms: _77  and  _79
REMARK   32  A    between atoms: _79  and  _80
REMARK   33  A    between atoms: _79  and  _82
REMARK   34  A    between atoms: _82  and  _83
REMARK   35  A    between atoms: _83  and  _84
REMARK   36  A    between atoms: _89  and  _91
REMARK   37  A    between atoms: _91  and  _92
REMARK   38  A    between atoms: _91  and  _94
REMARK   39  A    between atoms: _94  and  _95
REMARK   40  A    between atoms: _105  and  _107
REMARK   41  A    between atoms: _107  and  _108
REMARK   42  A    between atoms: _107  and  _110
REMARK   43  A    between atoms: _110  and  _111
REMARK   44  A    between atoms: _114  and  _116
REMARK   45  A    between atoms: _116  and  _117
REMARK   46  A    between atoms: _120  and  _122
REMARK   47  A    between atoms: _122  and  _123
REMARK   48  A    between atoms: _122  and  _125
REMARK   49  A    between atoms: _125  and  _126
REMARK   50  A    between atoms: _129  and  _131
REMARK   51  A    between atoms: _131  and  _132
REMARK   52  A    between atoms: _131  and  _134
REMARK   53  A    between atoms: _134  and  _135
REMARK   54  A    between atoms: _138  and  _140
REMARK   55  A    between atoms: _140  and  _141
REMARK   56  A    between atoms: _140  and  _143
REMARK   57  A    between atoms: _143  and  _144
REMARK   58  A    between atoms: _147  and  _149
REMARK   59  A    between atoms: _149  and  _150
REMARK   60  A    between atoms: _149  and  _152
REMARK   61  A    between atoms: _155  and  _157
REMARK   62  A    between atoms: _157  and  _158
REMARK   63  A    between atoms: _157  and  _160
REMARK   64  A    between atoms: _160  and  _161
REMARK   65  A    between atoms: _166  and  _167
REMARK   66  A    between atoms: _169  and  _171
REMARK   67  A    between atoms: _171  and  _172
REMARK   68  A    between atoms: _171  and  _174
REMARK   69  A    between atoms: _174  and  _175
REMARK   70  A    between atoms: _178  and  _180
REMARK   71  A    between atoms: _180  and  _181
REMARK   72  A    between atoms: _180  and  _183
REMARK   73  A    between atoms: _183  and  _184
REMARK   74  A    between atoms: _189  and  _190
REMARK   75  A    between atoms: _192  and  _194
REMARK   76  A    between atoms: _194  and  _195
REMARK   77  A    between atoms: _194  and  _197
REMARK   78  A    between atoms: _197  and  _198
REMARK   79  A    between atoms: _198  and  _199
REMARK   80  A    between atoms: _199  and  _200
REMARK   81  A    between atoms: _209  and  _211
REMARK   82  A    between atoms: _211  and  _212
REMARK   83  A    between atoms: _211  and  _214
REMARK   84  A    between atoms: _214  and  _215
REMARK   85  A    between atoms: _218  and  _220
REMARK   86  A    between atoms: _220  and  _221
REMARK   87  A    between atoms: _220  and  _223
REMARK   88  A    between atoms: _223  and  _224
REMARK   89  A    between atoms: _227  and  _229
REMARK   90  A    between atoms: _229  and  _230
REMARK   91  A    between atoms: _229  and  _232
REMARK   92  A    between atoms: _232  and  _233
REMARK   93  A    between atoms: _238  and  _240
REMARK   94  A    between atoms: _240  and  _241
REMARK   95  A    between atoms: _240  and  _243
REMARK   96  A    between atoms: _243  and  _244
REMARK   97  A    between atoms: _244  and  _245
REMARK   98  A    between atoms: _248  and  _250
REMARK   99  A    between atoms: _250  and  _251
REMARK  100  A    between atoms: _250  and  _253
REMARK  101  A    between atoms: _253  and  _254
REMARK  102  A    between atoms: _257  and  _259
REMARK  103  A    between atoms: _259  and  _260
REMARK  104  A    between atoms: _259  and  _262
REMARK  105  A    between atoms: _262  and  _263
REMARK  106  A    between atoms: _268  and  _269
REMARK  107  A    between atoms: _271  and  _273
REMARK  108  A    between atoms: _273  and  _274
REMARK  109  A    between atoms: _273  and  _276
REMARK  110  A    between atoms: _276  and  _277
REMARK  111  A    between atoms: _277  and  _278
REMARK  112  A    between atoms: _280  and  _282
REMARK  113  A    between atoms: _282  and  _283
REMARK  114  A    between atoms: _286  and  _288
REMARK  115  A    between atoms: _288  and  _289
REMARK  116  A    between atoms: _288  and  _291
REMARK  117  A    between atoms: _291  and  _292
REMARK  118  A    between atoms: _295  and  _297
REMARK  119  A    between atoms: _297  and  _298
REMARK  120  A    between atoms: _301  and  _303
REMARK  121  A    between atoms: _303  and  _304
REMARK  122  A    between atoms: _303  and  _306
REMARK  123  A    between atoms: _306  and  _307
REMARK  124  A    between atoms: _307  and  _308
REMARK  125  A    between atoms: _308  and  _309
REMARK  126  A    between atoms: _318  and  _320
REMARK  127  A    between atoms: _320  and  _321
REMARK  128  A    between atoms: _320  and  _323
REMARK  129  A    between atoms: _323  and  _324
REMARK  130  A    between atoms: _327  and  _329
REMARK  131  A    between atoms: _329  and  _330
REMARK  132  A    between atoms: _329  and  _332
REMARK  133  A    between atoms: _332  and  _333
REMARK  134  A    between atoms: _344  and  _345
REMARK  135  A    between atoms: _350  and  _352
REMARK  136  A    between atoms: _352  and  _353
REMARK  137  A    between atoms: _355  and  _357
REMARK  138  A    between atoms: _357  and  _358
REMARK  139  A    between atoms: _357  and  _360
REMARK  140  A    between atoms: _360  and  _361
REMARK  141  A    between atoms: _364  and  _366
REMARK  142  A    between atoms: _366  and  _367
REMARK  143  A    between atoms: _366  and  _369
REMARK  144  A    between atoms: _372  and  _374
REMARK  145  A    between atoms: _374  and  _375
REMARK  146  A    between atoms: _374  and  _377
REMARK  147  A    between atoms: _377  and  _378
REMARK  148  A    between atoms: _381  and  _383
REMARK  149  A    between atoms: _383  and  _384
REMARK  150  A    between atoms: _383  and  _386
REMARK  151  A    between atoms: _389  and  _391
REMARK  152  A    between atoms: _391  and  _392
REMARK  153  A    between atoms: _391  and  _394
REMARK  154  A    between atoms: _394  and  _395
REMARK  155  A    between atoms: _401  and  _403
REMARK  156  A    between atoms: _403  and  _404
REMARK  157  A    between atoms: _403  and  _406
REMARK  158  A    between atoms: _406  and  _407
REMARK  159  A    between atoms: _413  and  _415
REMARK  160  A    between atoms: _415  and  _416
REMARK  161  A    between atoms: _415  and  _418
REMARK  162  A    between atoms: _418  and  _419
REMARK  163  A    between atoms: _422  and  _424
REMARK  164  A    between atoms: _424  and  _425
REMARK  165  A    between atoms: _427  and  _429
REMARK  166  A    between atoms: _429  and  _430
REMARK  167  A    between atoms: _433  and  _435
REMARK  168  A    between atoms: _435  and  _436
REMARK  169  A    between atoms: _435  and  _438
REMARK  170  A    between atoms: _438  and  _439
REMARK  171  A    between atoms: _442  and  _444
REMARK  172  A    between atoms: _444  and  _445
REMARK  173  A    between atoms: _444  and  _447
REMARK  174  A    between atoms: _447  and  _448
REMARK  175  A    between atoms: _451  and  _453
REMARK  176  A    between atoms: _453  and  _454
REMARK  177  A    between atoms: _453  and  _456
REMARK  178  A    between atoms: _456  and  _457
REMARK  179  A    between atoms: _462  and  _464
REMARK  180  A    between atoms: _464  and  _465
REMARK  181  A    between atoms: _468  and  _470
REMARK  182  A    between atoms: _470  and  _471
REMARK  183  A    between atoms: _470  and  _473
REMARK  184  A    between atoms: _473  and  _474
REMARK  185  A    between atoms: _477  and  _479
REMARK  186  A    between atoms: _479  and  _480
REMARK  187  A    between atoms: _479  and  _482
REMARK  188  A    between atoms: _482  and  _483
REMARK  189  A    between atoms: _486  and  _488
REMARK  190  A    between atoms: _488  and  _489
REMARK  191  A    between atoms: _488  and  _491
REMARK  192  A    between atoms: _491  and  _492
REMARK  193  A    between atoms: _492  and  _493
REMARK  194  A    between atoms: _495  and  _497
REMARK  195  A    between atoms: _497  and  _498
REMARK  196  A    between atoms: _501  and  _503
REMARK  197  A    between atoms: _503  and  _504
REMARK  198  A    between atoms: _503  and  _506
REMARK  199  A    between atoms: _506  and  _507
REMARK  200  A    between atoms: _512  and  _514
REMARK  201  A    between atoms: _514  and  _515
REMARK  202  A    between atoms: _514  and  _517
REMARK  203  A    between atoms: _517  and  _518
REMARK  204  A    between atoms: _521  and  _523
REMARK  205  A    between atoms: _523  and  _524
REMARK  206  A    between atoms: _526  and  _528
REMARK  207  A    between atoms: _528  and  _529
REMARK  208  A    between atoms: _528  and  _531
REMARK  209  A    between atoms: _531  and  _532
REMARK  210  A    between atoms: _535  and  _537
REMARK  211  A    between atoms: _537  and  _538
REMARK  212  A    between atoms: _537  and  _540
REMARK  213  A    between atoms: _540  and  _541
REMARK  214  A    between atoms: _546  and  _548
REMARK  215  A    between atoms: _548  and  _549
REMARK  216  A    between atoms: _548  and  _551
REMARK  217  A    between atoms: _551  and  _552
REMARK                            x       y       z     vdW  Elec       q    Type
REMARK                         _______ _______ _______ _____ _____    ______ ____
ROOT
ATOM      1  O   HOH     1     -26.772  -1.180  -3.963  0.00  0.00    +0.000 OA
ENDROOT
TORSDOF 0
REMARK  Name = ../refined-set-2016/3v78/3v78_pocket.pdb
REMARK  217 active torsions:
REMARK  status: ('A' for Active; 'I' for Inactive)
REMARK    1  A    between atoms: _1  and  _3
REMARK    2  A    between atoms: _3  and  _4
REMARK    3  A    between atoms: _7  and  _9
REMARK    4  A    between atoms: _9  and  _10
REMARK    5  A    between atoms: _13  and  _15
REMARK    6  A    between atoms: _15  and  _16
REMARK    7  A    between atoms: _15  and  _18
REMARK    8  A    between atoms: _18  and  _19
REMARK    9  A    between atoms: _24  and  _26
REMARK   10  A    between atoms: _26  and  _27
REMARK   11  A    between atoms: _30  and  _32
REMARK   12  A    between atoms: _32  and  _33
REMARK   13  A    between atoms: _32  and  _35
REMARK   14  A    between atoms: _35  and  _36
REMARK   15  A    between atoms: _38  and  _40
REMARK   16  A    between atoms: _40  and  _41
REMARK   17  A    between atoms: _44  and  _46
REMARK   18  A    between atoms: _46  and  _47
REMARK   19  A    between atoms: _46  and  _49
REMARK   20  A    between atoms: _49  and  _50
REMARK   21  A    between atoms: _53  and  _55
REMARK   22  A    between atoms: _55  and  _56
REMARK   23  A    between atoms: _55  and  _58
REMARK   24  A    between atoms: _58  and  _59
REMARK   25  A    between atoms: _62  and  _64
REMARK   26  A    between atoms: _64  and  _65
REMARK   27  A    between atoms: _64  and  _67
REMARK   28  A    between atoms: _67  and  _68
REMARK   29  A    between atoms: _71  and  _73
REMARK   30  A    between atoms: _73  and  _74
REMARK   31  A    between atoms: _77  and  _79
REMARK   32  A    between atoms: _79  and  _80
REMARK   33  A    between atoms: _79  and  _82
REMARK   34  A    between atoms: _82  and  _83
REMARK   35  A    between atoms: _83  and  _84
REMARK   36  A    between atoms: _89  and  _91
REMARK   37  A    between atoms: _91  and  _92
REMARK   38  A    between atoms: _91  and  _94
REMARK   39  A    between atoms: _94  and  _95
REMARK   40  A    between atoms: _105  and  _107
REMARK   41  A    between atoms: _107  and  _108
REMARK   42  A    between atoms: _107  and  _110
REMARK   43  A    between atoms: _110  and  _111
REMARK   44  A    between atoms: _114  and  _116
REMARK   45  A    between atoms: _116  and  _117
REMARK   46  A    between atoms: _120  and  _122
REMARK   47  A    between atoms: _122  and  _123
REMARK   48  A    between atoms: _122  and  _125
REMARK   49  A    between atoms: _125  and  _126
REMARK   50  A    between atoms: _129  and  _131
REMARK   51  A    between atoms: _131  and  _132
REMARK   52  A    between atoms: _131  and  _134
REMARK   53  A    between atoms: _134  and  _135
REMARK   54  A    between atoms: _138  and  _140
REMARK   55  A    between atoms: _140  and  _141
REMARK   56  A    between atoms: _140  and  _143
REMARK   57  A    between atoms: _143  and  _144
REMARK   58  A    between atoms: _147  and  _149
REMARK   59  A    between atoms: _149  and  _150
REMARK   60  A    between atoms: _149  and  _152
REMARK   61  A    between atoms: _155  and  _157
REMARK   62  A    between atoms: _157  and  _158
REMARK   63  A    between atoms: _157  and  _160
REMARK   64  A    between atoms: _160  and  _161
REMARK   65  A    between atoms: _166  and  _167
REMARK   66  A    between atoms: _169  and  _171
REMARK   67  A    between atoms: _171  and  _172
REMARK   68  A    between atoms: _171  and  _174
REMARK   69  A    between atoms: _174  and  _175
REMARK   70  A    between atoms: _178  and  _180
REMARK   71  A    between atoms: _180  and  _181
REMARK   72  A    between atoms: _180  and  _183
REMARK   73  A    between atoms: _183  and  _184
REMARK   74  A    between atoms: _189  and  _190
REMARK   75  A    between atoms: _192  and  _194
REMARK   76  A    between atoms: _194  and  _195
REMARK   77  A    between atoms: _194  and  _197
REMARK   78  A    between atoms: _197  and  _198
REMARK   79  A    between atoms: _198  and  _199
REMARK   80  A    between atoms: _199  and  _200
REMARK   81  A    between atoms: _209  and  _211
REMARK   82  A    between atoms: _211  and  _212
REMARK   83  A    between atoms: _211  and  _214
REMARK   84  A    between atoms: _214  and  _215
REMARK   85  A    between atoms: _218  and  _220
REMARK   86  A    between atoms: _220  and  _221
REMARK   87  A    between atoms: _220  and  _223
REMARK   88  A    between atoms: _223  and  _224
REMARK   89  A    between atoms: _227  and  _229
REMARK   90  A    between atoms: _229  and  _230
REMARK   91  A    between atoms: _229  and  _232
REMARK   92  A    between atoms: _232  and  _233
REMARK   93  A    between atoms: _238  and  _240
REMARK   94  A    between atoms: _240  and  _241
REMARK   95  A    between atoms: _240  and  _243
REMARK   96  A    between atoms: _243  and  _244
REMARK   97  A    between atoms: _244  and  _245
REMARK   98  A    between atoms: _248  and  _250
REMARK   99  A    between atoms: _250  and  _251
REMARK  100  A    between atoms: _250  and  _253
REMARK  101  A    between atoms: _253  and  _254
REMARK  102  A    between atoms: _257  and  _259
REMARK  103  A    between atoms: _259  and  _260
REMARK  104  A    between atoms: _259  and  _262
REMARK  105  A    between atoms: _262  and  _263
REMARK  106  A    between atoms: _268  and  _269
REMARK  107  A    between atoms: _271  and  _273
REMARK  108  A    between atoms: _273  and  _274
REMARK  109  A    between atoms: _273  and  _276
REMARK  110  A    between atoms: _276  and  _277
REMARK  111  A    between atoms: _277  and  _278
REMARK  112  A    between atoms: _280  and  _282
REMARK  113  A    between atoms: _282  and  _283
REMARK  114  A    between atoms: _286  and  _288
REMARK  115  A    between atoms: _288  and  _289
REMARK  116  A    between atoms: _288  and  _291
REMARK  117  A    between atoms: _291  and  _292
REMARK  118  A    between atoms: _295  and  _297
REMARK  119  A    between atoms: _297  and  _298
REMARK  120  A    between atoms: _301  and  _303
REMARK  121  A    between atoms: _303  and  _304
REMARK  122  A    between atoms: _303  and  _306
REMARK  123  A    between atoms: _306  and  _307
REMARK  124  A    between atoms: _307  and  _308
REMARK  125  A    between atoms: _308  and  _309
REMARK  126  A    between atoms: _318  and  _320
REMARK  127  A    between atoms: _320  and  _321
REMARK  128  A    between atoms: _320  and  _323
REMARK  129  A    between atoms: _323  and  _324
REMARK  130  A    between atoms: _327  and  _329
REMARK  131  A    between atoms: _329  and  _330
REMARK  132  A    between atoms: _329  and  _332
REMARK  133  A    between atoms: _332  and  _333
REMARK  134  A    between atoms: _344  and  _345
REMARK  135  A    between atoms: _350  and  _352
REMARK  136  A    between atoms: _352  and  _353
REMARK  137  A    between atoms: _355  and  _357
REMARK  138  A    between atoms: _357  and  _358
REMARK  139  A    between atoms: _357  and  _360
REMARK  140  A    between atoms: _360  and  _361
REMARK  141  A    between atoms: _364  and  _366
REMARK  142  A    between atoms: _366  and  _367
REMARK  143  A    between atoms: _366  and  _369
REMARK  144  A    between atoms: _372  and  _374
REMARK  145  A    between atoms: _374  and  _375
REMARK  146  A    between atoms: _374  and  _377
REMARK  147  A    between atoms: _377  and  _378
REMARK  148  A    between atoms: _381  and  _383
REMARK  149  A    between atoms: _383  and  _384
REMARK  150  A    between atoms: _383  and  _386
REMARK  151  A    between atoms: _389  and  _391
REMARK  152  A    between atoms: _391  and  _392
REMARK  153  A    between atoms: _391  and  _394
REMARK  154  A    between atoms: _394  and  _395
REMARK  155  A    between atoms: _401  and  _403
REMARK  156  A    between atoms: _403  and  _404
REMARK  157  A    between atoms: _403  and  _406
REMARK  158  A    between atoms: _406  and  _407
REMARK  159  A    between atoms: _413  and  _415
REMARK  160  A    between atoms: _415  and  _416
REMARK  161  A    between atoms: _415  and  _418
REMARK  162  A    between atoms: _418  and  _419
REMARK  163  A    between atoms: _422  and  _424
REMARK  164  A    between atoms: _424  and  _425
REMARK  165  A    between atoms: _427  and  _429
REMARK  166  A    between atoms: _429  and  _430
REMARK  167  A    between atoms: _433  and  _435
REMARK  168  A    between atoms: _435  and  _436
REMARK  169  A    between atoms: _435  and  _438
REMARK  170  A    between atoms: _438  and  _439
REMARK  171  A    between atoms: _442  and  _444
REMARK  172  A    between atoms: _444  and  _445
REMARK  173  A    between atoms: _444  and  _447
REMARK  174  A    between atoms: _447  and  _448
REMARK  175  A    between atoms: _451  and  _453
REMARK  176  A    between atoms: _453  and  _454
REMARK  177  A    between atoms: _453  and  _456
REMARK  178  A    between atoms: _456  and  _457
REMARK  179  A    between atoms: _462  and  _464
REMARK  180  A    between atoms: _464  and  _465
REMARK  181  A    between atoms: _468  and  _470
REMARK  182  A    between atoms: _470  and  _471
REMARK  183  A    between atoms: _470  and  _473
REMARK  184  A    between atoms: _473  and  _474
REMARK  185  A    between atoms: _477  and  _479
REMARK  186  A    between atoms: _479  and  _480
REMARK  187  A    between atoms: _479  and  _482
REMARK  188  A    between atoms: _482  and  _483
REMARK  189  A    between atoms: _486  and  _488
REMARK  190  A    between atoms: _488  and  _489
REMARK  191  A    between atoms: _488  and  _491
REMARK  192  A    between atoms: _491  and  _492
REMARK  193  A    between atoms: _492  and  _493
REMARK  194  A    between atoms: _495  and  _497
REMARK  195  A    between atoms: _497  and  _498
REMARK  196  A    between atoms: _501  and  _503
REMARK  197  A    between atoms: _503  and  _504
REMARK  198  A    between atoms: _503  and  _506
REMARK  199  A    between atoms: _506  and  _507
REMARK  200  A    between atoms: _512  and  _514
REMARK  201  A    between atoms: _514  and  _515
REMARK  202  A    between atoms: _514  and  _517
REMARK  203  A    between atoms: _517  and  _518
REMARK  204  A    between atoms: _521  and  _523
REMARK  205  A    between atoms: _523  and  _524
REMARK  206  A    between atoms: _526  and  _528
REMARK  207  A    between atoms: _528  and  _529
REMARK  208  A    between atoms: _528  and  _531
REMARK  209  A    between atoms: _531  and  _532
REMARK  210  A    between atoms: _535  and  _537
REMARK  211  A    between atoms: _537  and  _538
REMARK  212  A    between atoms: _537  and  _540
REMARK  213  A    between atoms: _540  and  _541
REMARK  214  A    between atoms: _546  and  _548
REMARK  215  A    between atoms: _548  and  _549
REMARK  216  A    between atoms: _548  and  _551
REMARK  217  A    between atoms: _551  and  _552
REMARK                            x       y       z     vdW  Elec       q    Type
REMARK                         _______ _______ _______ _____ _____    ______ ____
ROOT
ATOM      1  O   HOH     1     -29.486 -14.188  -6.813  0.00  0.00    +0.000 OA
ENDROOT
TORSDOF 0
REMARK  Name = ../refined-set-2016/3v78/3v78_pocket.pdb
REMARK  217 active torsions:
REMARK  status: ('A' for Active; 'I' for Inactive)
REMARK    1  A    between atoms: _1  and  _3
REMARK    2  A    between atoms: _3  and  _4
REMARK    3  A    between atoms: _7  and  _9
REMARK    4  A    between atoms: _9  and  _10
REMARK    5  A    between atoms: _13  and  _15
REMARK    6  A    between atoms: _15  and  _16
REMARK    7  A    between atoms: _15  and  _18
REMARK    8  A    between atoms: _18  and  _19
REMARK    9  A    between atoms: _24  and  _26
REMARK   10  A    between atoms: _26  and  _27
REMARK   11  A    between atoms: _30  and  _32
REMARK   12  A    between atoms: _32  and  _33
REMARK   13  A    between atoms: _32  and  _35
REMARK   14  A    between atoms: _35  and  _36
REMARK   15  A    between atoms: _38  and  _40
REMARK   16  A    between atoms: _40  and  _41
REMARK   17  A    between atoms: _44  and  _46
REMARK   18  A    between atoms: _46  and  _47
REMARK   19  A    between atoms: _46  and  _49
REMARK   20  A    between atoms: _49  and  _50
REMARK   21  A    between atoms: _53  and  _55
REMARK   22  A    between atoms: _55  and  _56
REMARK   23  A    between atoms: _55  and  _58
REMARK   24  A    between atoms: _58  and  _59
REMARK   25  A    between atoms: _62  and  _64
REMARK   26  A    between atoms: _64  and  _65
REMARK   27  A    between atoms: _64  and  _67
REMARK   28  A    between atoms: _67  and  _68
REMARK   29  A    between atoms: _71  and  _73
REMARK   30  A    between atoms: _73  and  _74
REMARK   31  A    between atoms: _77  and  _79
REMARK   32  A    between atoms: _79  and  _80
REMARK   33  A    between atoms: _79  and  _82
REMARK   34  A    between atoms: _82  and  _83
REMARK   35  A    between atoms: _83  and  _84
REMARK   36  A    between atoms: _89  and  _91
REMARK   37  A    between atoms: _91  and  _92
REMARK   38  A    between atoms: _91  and  _94
REMARK   39  A    between atoms: _94  and  _95
REMARK   40  A    between atoms: _105  and  _107
REMARK   41  A    between atoms: _107  and  _108
REMARK   42  A    between atoms: _107  and  _110
REMARK   43  A    between atoms: _110  and  _111
REMARK   44  A    between atoms: _114  and  _116
REMARK   45  A    between atoms: _116  and  _117
REMARK   46  A    between atoms: _120  and  _122
REMARK   47  A    between atoms: _122  and  _123
REMARK   48  A    between atoms: _122  and  _125
REMARK   49  A    between atoms: _125  and  _126
REMARK   50  A    between atoms: _129  and  _131
REMARK   51  A    between atoms: _131  and  _132
REMARK   52  A    between atoms: _131  and  _134
REMARK   53  A    between atoms: _134  and  _135
REMARK   54  A    between atoms: _138  and  _140
REMARK   55  A    between atoms: _140  and  _141
REMARK   56  A    between atoms: _140  and  _143
REMARK   57  A    between atoms: _143  and  _144
REMARK   58  A    between atoms: _147  and  _149
REMARK   59  A    between atoms: _149  and  _150
REMARK   60  A    between atoms: _149  and  _152
REMARK   61  A    between atoms: _155  and  _157
REMARK   62  A    between atoms: _157  and  _158
REMARK   63  A    between atoms: _157  and  _160
REMARK   64  A    between atoms: _160  and  _161
REMARK   65  A    between atoms: _166  and  _167
REMARK   66  A    between atoms: _169  and  _171
REMARK   67  A    between atoms: _171  and  _172
REMARK   68  A    between atoms: _171  and  _174
REMARK   69  A    between atoms: _174  and  _175
REMARK   70  A    between atoms: _178  and  _180
REMARK   71  A    between atoms: _180  and  _181
REMARK   72  A    between atoms: _180  and  _183
REMARK   73  A    between atoms: _183  and  _184
REMARK   74  A    between atoms: _189  and  _190
REMARK   75  A    between atoms: _192  and  _194
REMARK   76  A    between atoms: _194  and  _195
REMARK   77  A    between atoms: _194  and  _197
REMARK   78  A    between atoms: _197  and  _198
REMARK   79  A    between atoms: _198  and  _199
REMARK   80  A    between atoms: _199  and  _200
REMARK   81  A    between atoms: _209  and  _211
REMARK   82  A    between atoms: _211  and  _212
REMARK   83  A    between atoms: _211  and  _214
REMARK   84  A    between atoms: _214  and  _215
REMARK   85  A    between atoms: _218  and  _220
REMARK   86  A    between atoms: _220  and  _221
REMARK   87  A    between atoms: _220  and  _223
REMARK   88  A    between atoms: _223  and  _224
REMARK   89  A    between atoms: _227  and  _229
REMARK   90  A    between atoms: _229  and  _230
REMARK   91  A    between atoms: _229  and  _232
REMARK   92  A    between atoms: _232  and  _233
REMARK   93  A    between atoms: _238  and  _240
REMARK   94  A    between atoms: _240  and  _241
REMARK   95  A    between atoms: _240  and  _243
REMARK   96  A    between atoms: _243  and  _244
REMARK   97  A    between atoms: _244  and  _245
REMARK   98  A    between atoms: _248  and  _250
REMARK   99  A    between atoms: _250  and  _251
REMARK  100  A    between atoms: _250  and  _253
REMARK  101  A    between atoms: _253  and  _254
REMARK  102  A    between atoms: _257  and  _259
REMARK  103  A    between atoms: _259  and  _260
REMARK  104  A    between atoms: _259  and  _262
REMARK  105  A    between atoms: _262  and  _263
REMARK  106  A    between atoms: _268  and  _269
REMARK  107  A    between atoms: _271  and  _273
REMARK  108  A    between atoms: _273  and  _274
REMARK  109  A    between atoms: _273  and  _276
REMARK  110  A    between atoms: _276  and  _277
REMARK  111  A    between atoms: _277  and  _278
REMARK  112  A    between atoms: _280  and  _282
REMARK  113  A    between atoms: _282  and  _283
REMARK  114  A    between atoms: _286  and  _288
REMARK  115  A    between atoms: _288  and  _289
REMARK  116  A    between atoms: _288  and  _291
REMARK  117  A    between atoms: _291  and  _292
REMARK  118  A    between atoms: _295  and  _297
REMARK  119  A    between atoms: _297  and  _298
REMARK  120  A    between atoms: _301  and  _303
REMARK  121  A    between atoms: _303  and  _304
REMARK  122  A    between atoms: _303  and  _306
REMARK  123  A    between atoms: _306  and  _307
REMARK  124  A    between atoms: _307  and  _308
REMARK  125  A    between atoms: _308  and  _309
REMARK  126  A    between atoms: _318  and  _320
REMARK  127  A    between atoms: _320  and  _321
REMARK  128  A    between atoms: _320  and  _323
REMARK  129  A    between atoms: _323  and  _324
REMARK  130  A    between atoms: _327  and  _329
REMARK  131  A    between atoms: _329  and  _330
REMARK  132  A    between atoms: _329  and  _332
REMARK  133  A    between atoms: _332  and  _333
REMARK  134  A    between atoms: _344  and  _345
REMARK  135  A    between atoms: _350  and  _352
REMARK  136  A    between atoms: _352  and  _353
REMARK  137  A    between atoms: _355  and  _357
REMARK  138  A    between atoms: _357  and  _358
REMARK  139  A    between atoms: _357  and  _360
REMARK  140  A    between atoms: _360  and  _361
REMARK  141  A    between atoms: _364  and  _366
REMARK  142  A    between atoms: _366  and  _367
REMARK  143  A    between atoms: _366  and  _369
REMARK  144  A    between atoms: _372  and  _374
REMARK  145  A    between atoms: _374  and  _375
REMARK  146  A    between atoms: _374  and  _377
REMARK  147  A    between atoms: _377  and  _378
REMARK  148  A    between atoms: _381  and  _383
REMARK  149  A    between atoms: _383  and  _384
REMARK  150  A    between atoms: _383  and  _386
REMARK  151  A    between atoms: _389  and  _391
REMARK  152  A    between atoms: _391  and  _392
REMARK  153  A    between atoms: _391  and  _394
REMARK  154  A    between atoms: _394  and  _395
REMARK  155  A    between atoms: _401  and  _403
REMARK  156  A    between atoms: _403  and  _404
REMARK  157  A    between atoms: _403  and  _406
REMARK  158  A    between atoms: _406  and  _407
REMARK  159  A    between atoms: _413  and  _415
REMARK  160  A    between atoms: _415  and  _416
REMARK  161  A    between atoms: _415  and  _418
REMARK  162  A    between atoms: _418  and  _419
REMARK  163  A    between atoms: _422  and  _424
REMARK  164  A    between atoms: _424  and  _425
REMARK  165  A    between atoms: _427  and  _429
REMARK  166  A    between atoms: _429  and  _430
REMARK  167  A    between atoms: _433  and  _435
REMARK  168  A    between atoms: _435  and  _436
REMARK  169  A    between atoms: _435  and  _438
REMARK  170  A    between atoms: _438  and  _439
REMARK  171  A    between atoms: _442  and  _444
REMARK  172  A    between atoms: _444  and  _445
REMARK  173  A    between atoms: _444  and  _447
REMARK  174  A    between atoms: _447  and  _448
REMARK  175  A    between atoms: _451  and  _453
REMARK  176  A    between atoms: _453  and  _454
REMARK  177  A    between atoms: _453  and  _456
REMARK  178  A    between atoms: _456  and  _457
REMARK  179  A    between atoms: _462  and  _464
REMARK  180  A    between atoms: _464  and  _465
REMARK  181  A    between atoms: _468  and  _470
REMARK  182  A    between atoms: _470  and  _471
REMARK  183  A    between atoms: _470  and  _473
REMARK  184  A    between atoms: _473  and  _474
REMARK  185  A    between atoms: _477  and  _479
REMARK  186  A    between atoms: _479  and  _480
REMARK  187  A    between atoms: _479  and  _482
REMARK  188  A    between atoms: _482  and  _483
REMARK  189  A    between atoms: _486  and  _488
REMARK  190  A    between atoms: _488  and  _489
REMARK  191  A    between atoms: _488  and  _491
REMARK  192  A    between atoms: _491  and  _492
REMARK  193  A    between atoms: _492  and  _493
REMARK  194  A    between atoms: _495  and  _497
REMARK  195  A    between atoms: _497  and  _498
REMARK  196  A    between atoms: _501  and  _503
REMARK  197  A    between atoms: _503  and  _504
REMARK  198  A    between atoms: _503  and  _506
REMARK  199  A    between atoms: _506  and  _507
REMARK  200  A    between atoms: _512  and  _514
REMARK  201  A    between atoms: _514  and  _515
REMARK  202  A    between atoms: _514  and  _517
REMARK  203  A    between atoms: _517  and  _518
REMARK  204  A    between atoms: _521  and  _523
REMARK  205  A    between atoms: _523  and  _524
REMARK  206  A    between atoms: _526  and  _528
REMARK  207  A    between atoms: _528  and  _529
REMARK  208  A    between atoms: _528  and  _531
REMARK  209  A    between atoms: _531  and  _532
REMARK  210  A    between atoms: _535  and  _537
REMARK  211  A    between atoms: _537  and  _538
REMARK  212  A    between atoms: _537  and  _540
REMARK  213  A    between atoms: _540  and  _541
REMARK  214  A    between atoms: _546  and  _548
REMARK  215  A    between atoms: _548  and  _549
REMARK  216  A    between atoms: _548  and  _551
REMARK  217  A    between atoms: _551  and  _552
REMARK                            x       y       z     vdW  Elec       q    Type
REMARK                         _______ _______ _______ _____ _____    ______ ____
ROOT
ATOM      1  O   HOH     1     -34.589  -8.086  -5.842  0.00  0.00    +0.000 OA
ENDROOT
TORSDOF 0
REMARK  Name = ../refined-set-2016/3v78/3v78_pocket.pdb
REMARK  217 active torsions:
REMARK  status: ('A' for Active; 'I' for Inactive)
REMARK    1  A    between atoms: _1  and  _3
REMARK    2  A    between atoms: _3  and  _4
REMARK    3  A    between atoms: _7  and  _9
REMARK    4  A    between atoms: _9  and  _10
REMARK    5  A    between atoms: _13  and  _15
REMARK    6  A    between atoms: _15  and  _16
REMARK    7  A    between atoms: _15  and  _18
REMARK    8  A    between atoms: _18  and  _19
REMARK    9  A    between atoms: _24  and  _26
REMARK   10  A    between atoms: _26  and  _27
REMARK   11  A    between atoms: _30  and  _32
REMARK   12  A    between atoms: _32  and  _33
REMARK   13  A    between atoms: _32  and  _35
REMARK   14  A    between atoms: _35  and  _36
REMARK   15  A    between atoms: _38  and  _40
REMARK   16  A    between atoms: _40  and  _41
REMARK   17  A    between atoms: _44  and  _46
REMARK   18  A    between atoms: _46  and  _47
REMARK   19  A    between atoms: _46  and  _49
REMARK   20  A    between atoms: _49  and  _50
REMARK   21  A    between atoms: _53  and  _55
REMARK   22  A    between atoms: _55  and  _56
REMARK   23  A    between atoms: _55  and  _58
REMARK   24  A    between atoms: _58  and  _59
REMARK   25  A    between atoms: _62  and  _64
REMARK   26  A    between atoms: _64  and  _65
REMARK   27  A    between atoms: _64  and  _67
REMARK   28  A    between atoms: _67  and  _68
REMARK   29  A    between atoms: _71  and  _73
REMARK   30  A    between atoms: _73  and  _74
REMARK   31  A    between atoms: _77  and  _79
REMARK   32  A    between atoms: _79  and  _80
REMARK   33  A    between atoms: _79  and  _82
REMARK   34  A    between atoms: _82  and  _83
REMARK   35  A    between atoms: _83  and  _84
REMARK   36  A    between atoms: _89  and  _91
REMARK   37  A    between atoms: _91  and  _92
REMARK   38  A    between atoms: _91  and  _94
REMARK   39  A    between atoms: _94  and  _95
REMARK   40  A    between atoms: _105  and  _107
REMARK   41  A    between atoms: _107  and  _108
REMARK   42  A    between atoms: _107  and  _110
REMARK   43  A    between atoms: _110  and  _111
REMARK   44  A    between atoms: _114  and  _116
REMARK   45  A    between atoms: _116  and  _117
REMARK   46  A    between atoms: _120  and  _122
REMARK   47  A    between atoms: _122  and  _123
REMARK   48  A    between atoms: _122  and  _125
REMARK   49  A    between atoms: _125  and  _126
REMARK   50  A    between atoms: _129  and  _131
REMARK   51  A    between atoms: _131  and  _132
REMARK   52  A    between atoms: _131  and  _134
REMARK   53  A    between atoms: _134  and  _135
REMARK   54  A    between atoms: _138  and  _140
REMARK   55  A    between atoms: _140  and  _141
REMARK   56  A    between atoms: _140  and  _143
REMARK   57  A    between atoms: _143  and  _144
REMARK   58  A    between atoms: _147  and  _149
REMARK   59  A    between atoms: _149  and  _150
REMARK   60  A    between atoms: _149  and  _152
REMARK   61  A    between atoms: _155  and  _157
REMARK   62  A    between atoms: _157  and  _158
REMARK   63  A    between atoms: _157  and  _160
REMARK   64  A    between atoms: _160  and  _161
REMARK   65  A    between atoms: _166  and  _167
REMARK   66  A    between atoms: _169  and  _171
REMARK   67  A    between atoms: _171  and  _172
REMARK   68  A    between atoms: _171  and  _174
REMARK   69  A    between atoms: _174  and  _175
REMARK   70  A    between atoms: _178  and  _180
REMARK   71  A    between atoms: _180  and  _181
REMARK   72  A    between atoms: _180  and  _183
REMARK   73  A    between atoms: _183  and  _184
REMARK   74  A    between atoms: _189  and  _190
REMARK   75  A    between atoms: _192  and  _194
REMARK   76  A    between atoms: _194  and  _195
REMARK   77  A    between atoms: _194  and  _197
REMARK   78  A    between atoms: _197  and  _198
REMARK   79  A    between atoms: _198  and  _199
REMARK   80  A    between atoms: _199  and  _200
REMARK   81  A    between atoms: _209  and  _211
REMARK   82  A    between atoms: _211  and  _212
REMARK   83  A    between atoms: _211  and  _214
REMARK   84  A    between atoms: _214  and  _215
REMARK   85  A    between atoms: _218  and  _220
REMARK   86  A    between atoms: _220  and  _221
REMARK   87  A    between atoms: _220  and  _223
REMARK   88  A    between atoms: _223  and  _224
REMARK   89  A    between atoms: _227  and  _229
REMARK   90  A    between atoms: _229  and  _230
REMARK   91  A    between atoms: _229  and  _232
REMARK   92  A    between atoms: _232  and  _233
REMARK   93  A    between atoms: _238  and  _240
REMARK   94  A    between atoms: _240  and  _241
REMARK   95  A    between atoms: _240  and  _243
REMARK   96  A    between atoms: _243  and  _244
REMARK   97  A    between atoms: _244  and  _245
REMARK   98  A    between atoms: _248  and  _250
REMARK   99  A    between atoms: _250  and  _251
REMARK  100  A    between atoms: _250  and  _253
REMARK  101  A    between atoms: _253  and  _254
REMARK  102  A    between atoms: _257  and  _259
REMARK  103  A    between atoms: _259  and  _260
REMARK  104  A    between atoms: _259  and  _262
REMARK  105  A    between atoms: _262  and  _263
REMARK  106  A    between atoms: _268  and  _269
REMARK  107  A    between atoms: _271  and  _273
REMARK  108  A    between atoms: _273  and  _274
REMARK  109  A    between atoms: _273  and  _276
REMARK  110  A    between atoms: _276  and  _277
REMARK  111  A    between atoms: _277  and  _278
REMARK  112  A    between atoms: _280  and  _282
REMARK  113  A    between atoms: _282  and  _283
REMARK  114  A    between atoms: _286  and  _288
REMARK  115  A    between atoms: _288  and  _289
REMARK  116  A    between atoms: _288  and  _291
REMARK  117  A    between atoms: _291  and  _292
REMARK  118  A    between atoms: _295  and  _297
REMARK  119  A    between atoms: _297  and  _298
REMARK  120  A    between atoms: _301  and  _303
REMARK  121  A    between atoms: _303  and  _304
REMARK  122  A    between atoms: _303  and  _306
REMARK  123  A    between atoms: _306  and  _307
REMARK  124  A    between atoms: _307  and  _308
REMARK  125  A    between atoms: _308  and  _309
REMARK  126  A    between atoms: _318  and  _320
REMARK  127  A    between atoms: _320  and  _321
REMARK  128  A    between atoms: _320  and  _323
REMARK  129  A    between atoms: _323  and  _324
REMARK  130  A    between atoms: _327  and  _329
REMARK  131  A    between atoms: _329  and  _330
REMARK  132  A    between atoms: _329  and  _332
REMARK  133  A    between atoms: _332  and  _333
REMARK  134  A    between atoms: _344  and  _345
REMARK  135  A    between atoms: _350  and  _352
REMARK  136  A    between atoms: _352  and  _353
REMARK  137  A    between atoms: _355  and  _357
REMARK  138  A    between atoms: _357  and  _358
REMARK  139  A    between atoms: _357  and  _360
REMARK  140  A    between atoms: _360  and  _361
REMARK  141  A    between atoms: _364  and  _366
REMARK  142  A    between atoms: _366  and  _367
REMARK  143  A    between atoms: _366  and  _369
REMARK  144  A    between atoms: _372  and  _374
REMARK  145  A    between atoms: _374  and  _375
REMARK  146  A    between atoms: _374  and  _377
REMARK  147  A    between atoms: _377  and  _378
REMARK  148  A    between atoms: _381  and  _383
REMARK  149  A    between atoms: _383  and  _384
REMARK  150  A    between atoms: _383  and  _386
REMARK  151  A    between atoms: _389  and  _391
REMARK  152  A    between atoms: _391  and  _392
REMARK  153  A    between atoms: _391  and  _394
REMARK  154  A    between atoms: _394  and  _395
REMARK  155  A    between atoms: _401  and  _403
REMARK  156  A    between atoms: _403  and  _404
REMARK  157  A    between atoms: _403  and  _406
REMARK  158  A    between atoms: _406  and  _407
REMARK  159  A    between atoms: _413  and  _415
REMARK  160  A    between atoms: _415  and  _416
REMARK  161  A    between atoms: _415  and  _418
REMARK  162  A    between atoms: _418  and  _419
REMARK  163  A    between atoms: _422  and  _424
REMARK  164  A    between atoms: _424  and  _425
REMARK  165  A    between atoms: _427  and  _429
REMARK  166  A    between atoms: _429  and  _430
REMARK  167  A    between atoms: _433  and  _435
REMARK  168  A    between atoms: _435  and  _436
REMARK  169  A    between atoms: _435  and  _438
REMARK  170  A    between atoms: _438  and  _439
REMARK  171  A    between atoms: _442  and  _444
REMARK  172  A    between atoms: _444  and  _445
REMARK  173  A    between atoms: _444  and  _447
REMARK  174  A    between atoms: _447  and  _448
REMARK  175  A    between atoms: _451  and  _453
REMARK  176  A    between atoms: _453  and  _454
REMARK  177  A    between atoms: _453  and  _456
REMARK  178  A    between atoms: _456  and  _457
REMARK  179  A    between atoms: _462  and  _464
REMARK  180  A    between atoms: _464  and  _465
REMARK  181  A    between atoms: _468  and  _470
REMARK  182  A    between atoms: _470  and  _471
REMARK  183  A    between atoms: _470  and  _473
REMARK  184  A    between atoms: _473  and  _474
REMARK  185  A    between atoms: _477  and  _479
REMARK  186  A    between atoms: _479  and  _480
REMARK  187  A    between atoms: _479  and  _482
REMARK  188  A    between atoms: _482  and  _483
REMARK  189  A    between atoms: _486  and  _488
REMARK  190  A    between atoms: _488  and  _489
REMARK  191  A    between atoms: _488  and  _491
REMARK  192  A    between atoms: _491  and  _492
REMARK  193  A    between atoms: _492  and  _493
REMARK  194  A    between atoms: _495  and  _497
REMARK  195  A    between atoms: _497  and  _498
REMARK  196  A    between atoms: _501  and  _503
REMARK  197  A    between atoms: _503  and  _504
REMARK  198  A    between atoms: _503  and  _506
REMARK  199  A    between atoms: _506  and  _507
REMARK  200  A    between atoms: _512  and  _514
REMARK  201  A    between atoms: _514  and  _515
REMARK  202  A    between atoms: _514  and  _517
REMARK  203  A    between atoms: _517  and  _518
REMARK  204  A    between atoms: _521  and  _523
REMARK  205  A    between atoms: _523  and  _524
REMARK  206  A    between atoms: _526  and  _528
REMARK  207  A    between atoms: _528  and  _529
REMARK  208  A    between atoms: _528  and  _531
REMARK  209  A    between atoms: _531  and  _532
REMARK  210  A    between atoms: _535  and  _537
REMARK  211  A    between atoms: _537  and  _538
REMARK  212  A    between atoms: _537  and  _540
REMARK  213  A    between atoms: _540  and  _541
REMARK  214  A    between atoms: _546  and  _548
REMARK  215  A    between atoms: _548  and  _549
REMARK  216  A    between atoms: _548  and  _551
REMARK  217  A    between atoms: _551  and  _552
REMARK                            x       y       z     vdW  Elec       q    Type
REMARK                         _______ _______ _______ _____ _____    ______ ____
ROOT
ATOM      1  O   HOH     1     -39.179 -11.359   3.284  0.00  0.00    +0.000 OA
ENDROOT
TORSDOF 0
REMARK  Name = ../refined-set-2016/3v78/3v78_pocket.pdb
REMARK  217 active torsions:
REMARK  status: ('A' for Active; 'I' for Inactive)
REMARK    1  A    between atoms: _1  and  _3
REMARK    2  A    between atoms: _3  and  _4
REMARK    3  A    between atoms: _7  and  _9
REMARK    4  A    between atoms: _9  and  _10
REMARK    5  A    between atoms: _13  and  _15
REMARK    6  A    between atoms: _15  and  _16
REMARK    7  A    between atoms: _15  and  _18
REMARK    8  A    between atoms: _18  and  _19
REMARK    9  A    between atoms: _24  and  _26
REMARK   10  A    between atoms: _26  and  _27
REMARK   11  A    between atoms: _30  and  _32
REMARK   12  A    between atoms: _32  and  _33
REMARK   13  A    between atoms: _32  and  _35
REMARK   14  A    between atoms: _35  and  _36
REMARK   15  A    between atoms: _38  and  _40
REMARK   16  A    between atoms: _40  and  _41
REMARK   17  A    between atoms: _44  and  _46
REMARK   18  A    between atoms: _46  and  _47
REMARK   19  A    between atoms: _46  and  _49
REMARK   20  A    between atoms: _49  and  _50
REMARK   21  A    between atoms: _53  and  _55
REMARK   22  A    between atoms: _55  and  _56
REMARK   23  A    between atoms: _55  and  _58
REMARK   24  A    between atoms: _58  and  _59
REMARK   25  A    between atoms: _62  and  _64
REMARK   26  A    between atoms: _64  and  _65
REMARK   27  A    between atoms: _64  and  _67
REMARK   28  A    between atoms: _67  and  _68
REMARK   29  A    between atoms: _71  and  _73
REMARK   30  A    between atoms: _73  and  _74
REMARK   31  A    between atoms: _77  and  _79
REMARK   32  A    between atoms: _79  and  _80
REMARK   33  A    between atoms: _79  and  _82
REMARK   34  A    between atoms: _82  and  _83
REMARK   35  A    between atoms: _83  and  _84
REMARK   36  A    between atoms: _89  and  _91
REMARK   37  A    between atoms: _91  and  _92
REMARK   38  A    between atoms: _91  and  _94
REMARK   39  A    between atoms: _94  and  _95
REMARK   40  A    between atoms: _105  and  _107
REMARK   41  A    between atoms: _107  and  _108
REMARK   42  A    between atoms: _107  and  _110
REMARK   43  A    between atoms: _110  and  _111
REMARK   44  A    between atoms: _114  and  _116
REMARK   45  A    between atoms: _116  and  _117
REMARK   46  A    between atoms: _120  and  _122
REMARK   47  A    between atoms: _122  and  _123
REMARK   48  A    between atoms: _122  and  _125
REMARK   49  A    between atoms: _125  and  _126
REMARK   50  A    between atoms: _129  and  _131
REMARK   51  A    between atoms: _131  and  _132
REMARK   52  A    between atoms: _131  and  _134
REMARK   53  A    between atoms: _134  and  _135
REMARK   54  A    between atoms: _138  and  _140
REMARK   55  A    between atoms: _140  and  _141
REMARK   56  A    between atoms: _140  and  _143
REMARK   57  A    between atoms: _143  and  _144
REMARK   58  A    between atoms: _147  and  _149
REMARK   59  A    between atoms: _149  and  _150
REMARK   60  A    between atoms: _149  and  _152
REMARK   61  A    between atoms: _155  and  _157
REMARK   62  A    between atoms: _157  and  _158
REMARK   63  A    between atoms: _157  and  _160
REMARK   64  A    between atoms: _160  and  _161
REMARK   65  A    between atoms: _166  and  _167
REMARK   66  A    between atoms: _169  and  _171
REMARK   67  A    between atoms: _171  and  _172
REMARK   68  A    between atoms: _171  and  _174
REMARK   69  A    between atoms: _174  and  _175
REMARK   70  A    between atoms: _178  and  _180
REMARK   71  A    between atoms: _180  and  _181
REMARK   72  A    between atoms: _180  and  _183
REMARK   73  A    between atoms: _183  and  _184
REMARK   74  A    between atoms: _189  and  _190
REMARK   75  A    between atoms: _192  and  _194
REMARK   76  A    between atoms: _194  and  _195
REMARK   77  A    between atoms: _194  and  _197
REMARK   78  A    between atoms: _197  and  _198
REMARK   79  A    between atoms: _198  and  _199
REMARK   80  A    between atoms: _199  and  _200
REMARK   81  A    between atoms: _209  and  _211
REMARK   82  A    between atoms: _211  and  _212
REMARK   83  A    between atoms: _211  and  _214
REMARK   84  A    between atoms: _214  and  _215
REMARK   85  A    between atoms: _218  and  _220
REMARK   86  A    between atoms: _220  and  _221
REMARK   87  A    between atoms: _220  and  _223
REMARK   88  A    between atoms: _223  and  _224
REMARK   89  A    between atoms: _227  and  _229
REMARK   90  A    between atoms: _229  and  _230
REMARK   91  A    between atoms: _229  and  _232
REMARK   92  A    between atoms: _232  and  _233
REMARK   93  A    between atoms: _238  and  _240
REMARK   94  A    between atoms: _240  and  _241
REMARK   95  A    between atoms: _240  and  _243
REMARK   96  A    between atoms: _243  and  _244
REMARK   97  A    between atoms: _244  and  _245
REMARK   98  A    between atoms: _248  and  _250
REMARK   99  A    between atoms: _250  and  _251
REMARK  100  A    between atoms: _250  and  _253
REMARK  101  A    between atoms: _253  and  _254
REMARK  102  A    between atoms: _257  and  _259
REMARK  103  A    between atoms: _259  and  _260
REMARK  104  A    between atoms: _259  and  _262
REMARK  105  A    between atoms: _262  and  _263
REMARK  106  A    between atoms: _268  and  _269
REMARK  107  A    between atoms: _271  and  _273
REMARK  108  A    between atoms: _273  and  _274
REMARK  109  A    between atoms: _273  and  _276
REMARK  110  A    between atoms: _276  and  _277
REMARK  111  A    between atoms: _277  and  _278
REMARK  112  A    between atoms: _280  and  _282
REMARK  113  A    between atoms: _282  and  _283
REMARK  114  A    between atoms: _286  and  _288
REMARK  115  A    between atoms: _288  and  _289
REMARK  116  A    between atoms: _288  and  _291
REMARK  117  A    between atoms: _291  and  _292
REMARK  118  A    between atoms: _295  and  _297
REMARK  119  A    between atoms: _297  and  _298
REMARK  120  A    between atoms: _301  and  _303
REMARK  121  A    between atoms: _303  and  _304
REMARK  122  A    between atoms: _303  and  _306
REMARK  123  A    between atoms: _306  and  _307
REMARK  124  A    between atoms: _307  and  _308
REMARK  125  A    between atoms: _308  and  _309
REMARK  126  A    between atoms: _318  and  _320
REMARK  127  A    between atoms: _320  and  _321
REMARK  128  A    between atoms: _320  and  _323
REMARK  129  A    between atoms: _323  and  _324
REMARK  130  A    between atoms: _327  and  _329
REMARK  131  A    between atoms: _329  and  _330
REMARK  132  A    between atoms: _329  and  _332
REMARK  133  A    between atoms: _332  and  _333
REMARK  134  A    between atoms: _344  and  _345
REMARK  135  A    between atoms: _350  and  _352
REMARK  136  A    between atoms: _352  and  _353
REMARK  137  A    between atoms: _355  and  _357
REMARK  138  A    between atoms: _357  and  _358
REMARK  139  A    between atoms: _357  and  _360
REMARK  140  A    between atoms: _360  and  _361
REMARK  141  A    between atoms: _364  and  _366
REMARK  142  A    between atoms: _366  and  _367
REMARK  143  A    between atoms: _366  and  _369
REMARK  144  A    between atoms: _372  and  _374
REMARK  145  A    between atoms: _374  and  _375
REMARK  146  A    between atoms: _374  and  _377
REMARK  147  A    between atoms: _377  and  _378
REMARK  148  A    between atoms: _381  and  _383
REMARK  149  A    between atoms: _383  and  _384
REMARK  150  A    between atoms: _383  and  _386
REMARK  151  A    between atoms: _389  and  _391
REMARK  152  A    between atoms: _391  and  _392
REMARK  153  A    between atoms: _391  and  _394
REMARK  154  A    between atoms: _394  and  _395
REMARK  155  A    between atoms: _401  and  _403
REMARK  156  A    between atoms: _403  and  _404
REMARK  157  A    between atoms: _403  and  _406
REMARK  158  A    between atoms: _406  and  _407
REMARK  159  A    between atoms: _413  and  _415
REMARK  160  A    between atoms: _415  and  _416
REMARK  161  A    between atoms: _415  and  _418
REMARK  162  A    between atoms: _418  and  _419
REMARK  163  A    between atoms: _422  and  _424
REMARK  164  A    between atoms: _424  and  _425
REMARK  165  A    between atoms: _427  and  _429
REMARK  166  A    between atoms: _429  and  _430
REMARK  167  A    between atoms: _433  and  _435
REMARK  168  A    between atoms: _435  and  _436
REMARK  169  A    between atoms: _435  and  _438
REMARK  170  A    between atoms: _438  and  _439
REMARK  171  A    between atoms: _442  and  _444
REMARK  172  A    between atoms: _444  and  _445
REMARK  173  A    between atoms: _444  and  _447
REMARK  174  A    between atoms: _447  and  _448
REMARK  175  A    between atoms: _451  and  _453
REMARK  176  A    between atoms: _453  and  _454
REMARK  177  A    between atoms: _453  and  _456
REMARK  178  A    between atoms: _456  and  _457
REMARK  179  A    between atoms: _462  and  _464
REMARK  180  A    between atoms: _464  and  _465
REMARK  181  A    between atoms: _468  and  _470
REMARK  182  A    between atoms: _470  and  _471
REMARK  183  A    between atoms: _470  and  _473
REMARK  184  A    between atoms: _473  and  _474
REMARK  185  A    between atoms: _477  and  _479
REMARK  186  A    between atoms: _479  and  _480
REMARK  187  A    between atoms: _479  and  _482
REMARK  188  A    between atoms: _482  and  _483
REMARK  189  A    between atoms: _486  and  _488
REMARK  190  A    between atoms: _488  and  _489
REMARK  191  A    between atoms: _488  and  _491
REMARK  192  A    between atoms: _491  and  _492
REMARK  193  A    between atoms: _492  and  _493
REMARK  194  A    between atoms: _495  and  _497
REMARK  195  A    between atoms: _497  and  _498
REMARK  196  A    between atoms: _501  and  _503
REMARK  197  A    between atoms: _503  and  _504
REMARK  198  A    between atoms: _503  and  _506
REMARK  199  A    between atoms: _506  and  _507
REMARK  200  A    between atoms: _512  and  _514
REMARK  201  A    between atoms: _514  and  _515
REMARK  202  A    between atoms: _514  and  _517
REMARK  203  A    between atoms: _517  and  _518
REMARK  204  A    between atoms: _521  and  _523
REMARK  205  A    between atoms: _523  and  _524
REMARK  206  A    between atoms: _526  and  _528
REMARK  207  A    between atoms: _528  and  _529
REMARK  208  A    between atoms: _528  and  _531
REMARK  209  A    between atoms: _531  and  _532
REMARK  210  A    between atoms: _535  and  _537
REMARK  211  A    between atoms: _537  and  _538
REMARK  212  A    between atoms: _537  and  _540
REMARK  213  A    between atoms: _540  and  _541
REMARK  214  A    between atoms: _546  and  _548
REMARK  215  A    between atoms: _548  and  _549
REMARK  216  A    between atoms: _548  and  _551
REMARK  217  A    between atoms: _551  and  _552
REMARK                            x       y       z     vdW  Elec       q    Type
REMARK                         _______ _______ _______ _____ _____    ______ ____
ROOT
ATOM      1  O   HOH     1     -40.436 -11.021   5.742  0.00  0.00    +0.000 OA
ENDROOT
TORSDOF 0
REMARK  Name = ../refined-set-2016/3v78/3v78_pocket.pdb
REMARK  217 active torsions:
REMARK  status: ('A' for Active; 'I' for Inactive)
REMARK    1  A    between atoms: _1  and  _3
REMARK    2  A    between atoms: _3  and  _4
REMARK    3  A    between atoms: _7  and  _9
REMARK    4  A    between atoms: _9  and  _10
REMARK    5  A    between atoms: _13  and  _15
REMARK    6  A    between atoms: _15  and  _16
REMARK    7  A    between atoms: _15  and  _18
REMARK    8  A    between atoms: _18  and  _19
REMARK    9  A    between atoms: _24  and  _26
REMARK   10  A    between atoms: _26  and  _27
REMARK   11  A    between atoms: _30  and  _32
REMARK   12  A    between atoms: _32  and  _33
REMARK   13  A    between atoms: _32  and  _35
REMARK   14  A    between atoms: _35  and  _36
REMARK   15  A    between atoms: _38  and  _40
REMARK   16  A    between atoms: _40  and  _41
REMARK   17  A    between atoms: _44  and  _46
REMARK   18  A    between atoms: _46  and  _47
REMARK   19  A    between atoms: _46  and  _49
REMARK   20  A    between atoms: _49  and  _50
REMARK   21  A    between atoms: _53  and  _55
REMARK   22  A    between atoms: _55  and  _56
REMARK   23  A    between atoms: _55  and  _58
REMARK   24  A    between atoms: _58  and  _59
REMARK   25  A    between atoms: _62  and  _64
REMARK   26  A    between atoms: _64  and  _65
REMARK   27  A    between atoms: _64  and  _67
REMARK   28  A    between atoms: _67  and  _68
REMARK   29  A    between atoms: _71  and  _73
REMARK   30  A    between atoms: _73  and  _74
REMARK   31  A    between atoms: _77  and  _79
REMARK   32  A    between atoms: _79  and  _80
REMARK   33  A    between atoms: _79  and  _82
REMARK   34  A    between atoms: _82  and  _83
REMARK   35  A    between atoms: _83  and  _84
REMARK   36  A    between atoms: _89  and  _91
REMARK   37  A    between atoms: _91  and  _92
REMARK   38  A    between atoms: _91  and  _94
REMARK   39  A    between atoms: _94  and  _95
REMARK   40  A    between atoms: _105  and  _107
REMARK   41  A    between atoms: _107  and  _108
REMARK   42  A    between atoms: _107  and  _110
REMARK   43  A    between atoms: _110  and  _111
REMARK   44  A    between atoms: _114  and  _116
REMARK   45  A    between atoms: _116  and  _117
REMARK   46  A    between atoms: _120  and  _122
REMARK   47  A    between atoms: _122  and  _123
REMARK   48  A    between atoms: _122  and  _125
REMARK   49  A    between atoms: _125  and  _126
REMARK   50  A    between atoms: _129  and  _131
REMARK   51  A    between atoms: _131  and  _132
REMARK   52  A    between atoms: _131  and  _134
REMARK   53  A    between atoms: _134  and  _135
REMARK   54  A    between atoms: _138  and  _140
REMARK   55  A    between atoms: _140  and  _141
REMARK   56  A    between atoms: _140  and  _143
REMARK   57  A    between atoms: _143  and  _144
REMARK   58  A    between atoms: _147  and  _149
REMARK   59  A    between atoms: _149  and  _150
REMARK   60  A    between atoms: _149  and  _152
REMARK   61  A    between atoms: _155  and  _157
REMARK   62  A    between atoms: _157  and  _158
REMARK   63  A    between atoms: _157  and  _160
REMARK   64  A    between atoms: _160  and  _161
REMARK   65  A    between atoms: _166  and  _167
REMARK   66  A    between atoms: _169  and  _171
REMARK   67  A    between atoms: _171  and  _172
REMARK   68  A    between atoms: _171  and  _174
REMARK   69  A    between atoms: _174  and  _175
REMARK   70  A    between atoms: _178  and  _180
REMARK   71  A    between atoms: _180  and  _181
REMARK   72  A    between atoms: _180  and  _183
REMARK   73  A    between atoms: _183  and  _184
REMARK   74  A    between atoms: _189  and  _190
REMARK   75  A    between atoms: _192  and  _194
REMARK   76  A    between atoms: _194  and  _195
REMARK   77  A    between atoms: _194  and  _197
REMARK   78  A    between atoms: _197  and  _198
REMARK   79  A    between atoms: _198  and  _199
REMARK   80  A    between atoms: _199  and  _200
REMARK   81  A    between atoms: _209  and  _211
REMARK   82  A    between atoms: _211  and  _212
REMARK   83  A    between atoms: _211  and  _214
REMARK   84  A    between atoms: _214  and  _215
REMARK   85  A    between atoms: _218  and  _220
REMARK   86  A    between atoms: _220  and  _221
REMARK   87  A    between atoms: _220  and  _223
REMARK   88  A    between atoms: _223  and  _224
REMARK   89  A    between atoms: _227  and  _229
REMARK   90  A    between atoms: _229  and  _230
REMARK   91  A    between atoms: _229  and  _232
REMARK   92  A    between atoms: _232  and  _233
REMARK   93  A    between atoms: _238  and  _240
REMARK   94  A    between atoms: _240  and  _241
REMARK   95  A    between atoms: _240  and  _243
REMARK   96  A    between atoms: _243  and  _244
REMARK   97  A    between atoms: _244  and  _245
REMARK   98  A    between atoms: _248  and  _250
REMARK   99  A    between atoms: _250  and  _251
REMARK  100  A    between atoms: _250  and  _253
REMARK  101  A    between atoms: _253  and  _254
REMARK  102  A    between atoms: _257  and  _259
REMARK  103  A    between atoms: _259  and  _260
REMARK  104  A    between atoms: _259  and  _262
REMARK  105  A    between atoms: _262  and  _263
REMARK  106  A    between atoms: _268  and  _269
REMARK  107  A    between atoms: _271  and  _273
REMARK  108  A    between atoms: _273  and  _274
REMARK  109  A    between atoms: _273  and  _276
REMARK  110  A    between atoms: _276  and  _277
REMARK  111  A    between atoms: _277  and  _278
REMARK  112  A    between atoms: _280  and  _282
REMARK  113  A    between atoms: _282  and  _283
REMARK  114  A    between atoms: _286  and  _288
REMARK  115  A    between atoms: _288  and  _289
REMARK  116  A    between atoms: _288  and  _291
REMARK  117  A    between atoms: _291  and  _292
REMARK  118  A    between atoms: _295  and  _297
REMARK  119  A    between atoms: _297  and  _298
REMARK  120  A    between atoms: _301  and  _303
REMARK  121  A    between atoms: _303  and  _304
REMARK  122  A    between atoms: _303  and  _306
REMARK  123  A    between atoms: _306  and  _307
REMARK  124  A    between atoms: _307  and  _308
REMARK  125  A    between atoms: _308  and  _309
REMARK  126  A    between atoms: _318  and  _320
REMARK  127  A    between atoms: _320  and  _321
REMARK  128  A    between atoms: _320  and  _323
REMARK  129  A    between atoms: _323  and  _324
REMARK  130  A    between atoms: _327  and  _329
REMARK  131  A    between atoms: _329  and  _330
REMARK  132  A    between atoms: _329  and  _332
REMARK  133  A    between atoms: _332  and  _333
REMARK  134  A    between atoms: _344  and  _345
REMARK  135  A    between atoms: _350  and  _352
REMARK  136  A    between atoms: _352  and  _353
REMARK  137  A    between atoms: _355  and  _357
REMARK  138  A    between atoms: _357  and  _358
REMARK  139  A    between atoms: _357  and  _360
REMARK  140  A    between atoms: _360  and  _361
REMARK  141  A    between atoms: _364  and  _366
REMARK  142  A    between atoms: _366  and  _367
REMARK  143  A    between atoms: _366  and  _369
REMARK  144  A    between atoms: _372  and  _374
REMARK  145  A    between atoms: _374  and  _375
REMARK  146  A    between atoms: _374  and  _377
REMARK  147  A    between atoms: _377  and  _378
REMARK  148  A    between atoms: _381  and  _383
REMARK  149  A    between atoms: _383  and  _384
REMARK  150  A    between atoms: _383  and  _386
REMARK  151  A    between atoms: _389  and  _391
REMARK  152  A    between atoms: _391  and  _392
REMARK  153  A    between atoms: _391  and  _394
REMARK  154  A    between atoms: _394  and  _395
REMARK  155  A    between atoms: _401  and  _403
REMARK  156  A    between atoms: _403  and  _404
REMARK  157  A    between atoms: _403  and  _406
REMARK  158  A    between atoms: _406  and  _407
REMARK  159  A    between atoms: _413  and  _415
REMARK  160  A    between atoms: _415  and  _416
REMARK  161  A    between atoms: _415  and  _418
REMARK  162  A    between atoms: _418  and  _419
REMARK  163  A    between atoms: _422  and  _424
REMARK  164  A    between atoms: _424  and  _425
REMARK  165  A    between atoms: _427  and  _429
REMARK  166  A    between atoms: _429  and  _430
REMARK  167  A    between atoms: _433  and  _435
REMARK  168  A    between atoms: _435  and  _436
REMARK  169  A    between atoms: _435  and  _438
REMARK  170  A    between atoms: _438  and  _439
REMARK  171  A    between atoms: _442  and  _444
REMARK  172  A    between atoms: _444  and  _445
REMARK  173  A    between atoms: _444  and  _447
REMARK  174  A    between atoms: _447  and  _448
REMARK  175  A    between atoms: _451  and  _453
REMARK  176  A    between atoms: _453  and  _454
REMARK  177  A    between atoms: _453  and  _456
REMARK  178  A    between atoms: _456  and  _457
REMARK  179  A    between atoms: _462  and  _464
REMARK  180  A    between atoms: _464  and  _465
REMARK  181  A    between atoms: _468  and  _470
REMARK  182  A    between atoms: _470  and  _471
REMARK  183  A    between atoms: _470  and  _473
REMARK  184  A    between atoms: _473  and  _474
REMARK  185  A    between atoms: _477  and  _479
REMARK  186  A    between atoms: _479  and  _480
REMARK  187  A    between atoms: _479  and  _482
REMARK  188  A    between atoms: _482  and  _483
REMARK  189  A    between atoms: _486  and  _488
REMARK  190  A    between atoms: _488  and  _489
REMARK  191  A    between atoms: _488  and  _491
REMARK  192  A    between atoms: _491  and  _492
REMARK  193  A    between atoms: _492  and  _493
REMARK  194  A    between atoms: _495  and  _497
REMARK  195  A    between atoms: _497  and  _498
REMARK  196  A    between atoms: _501  and  _503
REMARK  197  A    between atoms: _503  and  _504
REMARK  198  A    between atoms: _503  and  _506
REMARK  199  A    between atoms: _506  and  _507
REMARK  200  A    between atoms: _512  and  _514
REMARK  201  A    between atoms: _514  and  _515
REMARK  202  A    between atoms: _514  and  _517
REMARK  203  A    between atoms: _517  and  _518
REMARK  204  A    between atoms: _521  and  _523
REMARK  205  A    between atoms: _523  and  _524
REMARK  206  A    between atoms: _526  and  _528
REMARK  207  A    between atoms: _528  and  _529
REMARK  208  A    between atoms: _528  and  _531
REMARK  209  A    between atoms: _531  and  _532
REMARK  210  A    between atoms: _535  and  _537
REMARK  211  A    between atoms: _537  and  _538
REMARK  212  A    between atoms: _537  and  _540
REMARK  213  A    between atoms: _540  and  _541
REMARK  214  A    between atoms: _546  and  _548
REMARK  215  A    between atoms: _548  and  _549
REMARK  216  A    between atoms: _548  and  _551
REMARK  217  A    between atoms: _551  and  _552
REMARK                            x       y       z     vdW  Elec       q    Type
REMARK                         _______ _______ _______ _____ _____    ______ ____
ROOT
ATOM      1  O   HOH     1     -37.067 -14.265   3.934  0.00  0.00    +0.000 OA
ENDROOT
TORSDOF 0
REMARK  Name = ../refined-set-2016/3v78/3v78_pocket.pdb
REMARK  217 active torsions:
REMARK  status: ('A' for Active; 'I' for Inactive)
REMARK    1  A    between atoms: _1  and  _3
REMARK    2  A    between atoms: _3  and  _4
REMARK    3  A    between atoms: _7  and  _9
REMARK    4  A    between atoms: _9  and  _10
REMARK    5  A    between atoms: _13  and  _15
REMARK    6  A    between atoms: _15  and  _16
REMARK    7  A    between atoms: _15  and  _18
REMARK    8  A    between atoms: _18  and  _19
REMARK    9  A    between atoms: _24  and  _26
REMARK   10  A    between atoms: _26  and  _27
REMARK   11  A    between atoms: _30  and  _32
REMARK   12  A    between atoms: _32  and  _33
REMARK   13  A    between atoms: _32  and  _35
REMARK   14  A    between atoms: _35  and  _36
REMARK   15  A    between atoms: _38  and  _40
REMARK   16  A    between atoms: _40  and  _41
REMARK   17  A    between atoms: _44  and  _46
REMARK   18  A    between atoms: _46  and  _47
REMARK   19  A    between atoms: _46  and  _49
REMARK   20  A    between atoms: _49  and  _50
REMARK   21  A    between atoms: _53  and  _55
REMARK   22  A    between atoms: _55  and  _56
REMARK   23  A    between atoms: _55  and  _58
REMARK   24  A    between atoms: _58  and  _59
REMARK   25  A    between atoms: _62  and  _64
REMARK   26  A    between atoms: _64  and  _65
REMARK   27  A    between atoms: _64  and  _67
REMARK   28  A    between atoms: _67  and  _68
REMARK   29  A    between atoms: _71  and  _73
REMARK   30  A    between atoms: _73  and  _74
REMARK   31  A    between atoms: _77  and  _79
REMARK   32  A    between atoms: _79  and  _80
REMARK   33  A    between atoms: _79  and  _82
REMARK   34  A    between atoms: _82  and  _83
REMARK   35  A    between atoms: _83  and  _84
REMARK   36  A    between atoms: _89  and  _91
REMARK   37  A    between atoms: _91  and  _92
REMARK   38  A    between atoms: _91  and  _94
REMARK   39  A    between atoms: _94  and  _95
REMARK   40  A    between atoms: _105  and  _107
REMARK   41  A    between atoms: _107  and  _108
REMARK   42  A    between atoms: _107  and  _110
REMARK   43  A    between atoms: _110  and  _111
REMARK   44  A    between atoms: _114  and  _116
REMARK   45  A    between atoms: _116  and  _117
REMARK   46  A    between atoms: _120  and  _122
REMARK   47  A    between atoms: _122  and  _123
REMARK   48  A    between atoms: _122  and  _125
REMARK   49  A    between atoms: _125  and  _126
REMARK   50  A    between atoms: _129  and  _131
REMARK   51  A    between atoms: _131  and  _132
REMARK   52  A    between atoms: _131  and  _134
REMARK   53  A    between atoms: _134  and  _135
REMARK   54  A    between atoms: _138  and  _140
REMARK   55  A    between atoms: _140  and  _141
REMARK   56  A    between atoms: _140  and  _143
REMARK   57  A    between atoms: _143  and  _144
REMARK   58  A    between atoms: _147  and  _149
REMARK   59  A    between atoms: _149  and  _150
REMARK   60  A    between atoms: _149  and  _152
REMARK   61  A    between atoms: _155  and  _157
REMARK   62  A    between atoms: _157  and  _158
REMARK   63  A    between atoms: _157  and  _160
REMARK   64  A    between atoms: _160  and  _161
REMARK   65  A    between atoms: _166  and  _167
REMARK   66  A    between atoms: _169  and  _171
REMARK   67  A    between atoms: _171  and  _172
REMARK   68  A    between atoms: _171  and  _174
REMARK   69  A    between atoms: _174  and  _175
REMARK   70  A    between atoms: _178  and  _180
REMARK   71  A    between atoms: _180  and  _181
REMARK   72  A    between atoms: _180  and  _183
REMARK   73  A    between atoms: _183  and  _184
REMARK   74  A    between atoms: _189  and  _190
REMARK   75  A    between atoms: _192  and  _194
REMARK   76  A    between atoms: _194  and  _195
REMARK   77  A    between atoms: _194  and  _197
REMARK   78  A    between atoms: _197  and  _198
REMARK   79  A    between atoms: _198  and  _199
REMARK   80  A    between atoms: _199  and  _200
REMARK   81  A    between atoms: _209  and  _211
REMARK   82  A    between atoms: _211  and  _212
REMARK   83  A    between atoms: _211  and  _214
REMARK   84  A    between atoms: _214  and  _215
REMARK   85  A    between atoms: _218  and  _220
REMARK   86  A    between atoms: _220  and  _221
REMARK   87  A    between atoms: _220  and  _223
REMARK   88  A    between atoms: _223  and  _224
REMARK   89  A    between atoms: _227  and  _229
REMARK   90  A    between atoms: _229  and  _230
REMARK   91  A    between atoms: _229  and  _232
REMARK   92  A    between atoms: _232  and  _233
REMARK   93  A    between atoms: _238  and  _240
REMARK   94  A    between atoms: _240  and  _241
REMARK   95  A    between atoms: _240  and  _243
REMARK   96  A    between atoms: _243  and  _244
REMARK   97  A    between atoms: _244  and  _245
REMARK   98  A    between atoms: _248  and  _250
REMARK   99  A    between atoms: _250  and  _251
REMARK  100  A    between atoms: _250  and  _253
REMARK  101  A    between atoms: _253  and  _254
REMARK  102  A    between atoms: _257  and  _259
REMARK  103  A    between atoms: _259  and  _260
REMARK  104  A    between atoms: _259  and  _262
REMARK  105  A    between atoms: _262  and  _263
REMARK  106  A    between atoms: _268  and  _269
REMARK  107  A    between atoms: _271  and  _273
REMARK  108  A    between atoms: _273  and  _274
REMARK  109  A    between atoms: _273  and  _276
REMARK  110  A    between atoms: _276  and  _277
REMARK  111  A    between atoms: _277  and  _278
REMARK  112  A    between atoms: _280  and  _282
REMARK  113  A    between atoms: _282  and  _283
REMARK  114  A    between atoms: _286  and  _288
REMARK  115  A    between atoms: _288  and  _289
REMARK  116  A    between atoms: _288  and  _291
REMARK  117  A    between atoms: _291  and  _292
REMARK  118  A    between atoms: _295  and  _297
REMARK  119  A    between atoms: _297  and  _298
REMARK  120  A    between atoms: _301  and  _303
REMARK  121  A    between atoms: _303  and  _304
REMARK  122  A    between atoms: _303  and  _306
REMARK  123  A    between atoms: _306  and  _307
REMARK  124  A    between atoms: _307  and  _308
REMARK  125  A    between atoms: _308  and  _309
REMARK  126  A    between atoms: _318  and  _320
REMARK  127  A    between atoms: _320  and  _321
REMARK  128  A    between atoms: _320  and  _323
REMARK  129  A    between atoms: _323  and  _324
REMARK  130  A    between atoms: _327  and  _329
REMARK  131  A    between atoms: _329  and  _330
REMARK  132  A    between atoms: _329  and  _332
REMARK  133  A    between atoms: _332  and  _333
REMARK  134  A    between atoms: _344  and  _345
REMARK  135  A    between atoms: _350  and  _352
REMARK  136  A    between atoms: _352  and  _353
REMARK  137  A    between atoms: _355  and  _357
REMARK  138  A    between atoms: _357  and  _358
REMARK  139  A    between atoms: _357  and  _360
REMARK  140  A    between atoms: _360  and  _361
REMARK  141  A    between atoms: _364  and  _366
REMARK  142  A    between atoms: _366  and  _367
REMARK  143  A    between atoms: _366  and  _369
REMARK  144  A    between atoms: _372  and  _374
REMARK  145  A    between atoms: _374  and  _375
REMARK  146  A    between atoms: _374  and  _377
REMARK  147  A    between atoms: _377  and  _378
REMARK  148  A    between atoms: _381  and  _383
REMARK  149  A    between atoms: _383  and  _384
REMARK  150  A    between atoms: _383  and  _386
REMARK  151  A    between atoms: _389  and  _391
REMARK  152  A    between atoms: _391  and  _392
REMARK  153  A    between atoms: _391  and  _394
REMARK  154  A    between atoms: _394  and  _395
REMARK  155  A    between atoms: _401  and  _403
REMARK  156  A    between atoms: _403  and  _404
REMARK  157  A    between atoms: _403  and  _406
REMARK  158  A    between atoms: _406  and  _407
REMARK  159  A    between atoms: _413  and  _415
REMARK  160  A    between atoms: _415  and  _416
REMARK  161  A    between atoms: _415  and  _418
REMARK  162  A    between atoms: _418  and  _419
REMARK  163  A    between atoms: _422  and  _424
REMARK  164  A    between atoms: _424  and  _425
REMARK  165  A    between atoms: _427  and  _429
REMARK  166  A    between atoms: _429  and  _430
REMARK  167  A    between atoms: _433  and  _435
REMARK  168  A    between atoms: _435  and  _436
REMARK  169  A    between atoms: _435  and  _438
REMARK  170  A    between atoms: _438  and  _439
REMARK  171  A    between atoms: _442  and  _444
REMARK  172  A    between atoms: _444  and  _445
REMARK  173  A    between atoms: _444  and  _447
REMARK  174  A    between atoms: _447  and  _448
REMARK  175  A    between atoms: _451  and  _453
REMARK  176  A    between atoms: _453  and  _454
REMARK  177  A    between atoms: _453  and  _456
REMARK  178  A    between atoms: _456  and  _457
REMARK  179  A    between atoms: _462  and  _464
REMARK  180  A    between atoms: _464  and  _465
REMARK  181  A    between atoms: _468  and  _470
REMARK  182  A    between atoms: _470  and  _471
REMARK  183  A    between atoms: _470  and  _473
REMARK  184  A    between atoms: _473  and  _474
REMARK  185  A    between atoms: _477  and  _479
REMARK  186  A    between atoms: _479  and  _480
REMARK  187  A    between atoms: _479  and  _482
REMARK  188  A    between atoms: _482  and  _483
REMARK  189  A    between atoms: _486  and  _488
REMARK  190  A    between atoms: _488  and  _489
REMARK  191  A    between atoms: _488  and  _491
REMARK  192  A    between atoms: _491  and  _492
REMARK  193  A    between atoms: _492  and  _493
REMARK  194  A    between atoms: _495  and  _497
REMARK  195  A    between atoms: _497  and  _498
REMARK  196  A    between atoms: _501  and  _503
REMARK  197  A    between atoms: _503  and  _504
REMARK  198  A    between atoms: _503  and  _506
REMARK  199  A    between atoms: _506  and  _507
REMARK  200  A    between atoms: _512  and  _514
REMARK  201  A    between atoms: _514  and  _515
REMARK  202  A    between atoms: _514  and  _517
REMARK  203  A    between atoms: _517  and  _518
REMARK  204  A    between atoms: _521  and  _523
REMARK  205  A    between atoms: _523  and  _524
REMARK  206  A    between atoms: _526  and  _528
REMARK  207  A    between atoms: _528  and  _529
REMARK  208  A    between atoms: _528  and  _531
REMARK  209  A    between atoms: _531  and  _532
REMARK  210  A    between atoms: _535  and  _537
REMARK  211  A    between atoms: _537  and  _538
REMARK  212  A    between atoms: _537  and  _540
REMARK  213  A    between atoms: _540  and  _541
REMARK  214  A    between atoms: _546  and  _548
REMARK  215  A    between atoms: _548  and  _549
REMARK  216  A    between atoms: _548  and  _551
REMARK  217  A    between atoms: _551  and  _552
REMARK                            x       y       z     vdW  Elec       q    Type
REMARK                         _______ _______ _______ _____ _____    ______ ____
ROOT
ATOM      1  O   HOH     1     -38.123  -4.679  -4.851  0.00  0.00    +0.000 OA
ENDROOT
TORSDOF 0
