REMARK  Name = ../refined-set-2016/1a9m/1a9m_pocket.pdb
REMARK  211 active torsions:
REMARK  status: ('A' for Active; 'I' for Inactive)
REMARK    1  A    between atoms: _1  and  _3
REMARK    2  A    between atoms: _3  and  _4
REMARK    3  A    between atoms: _3  and  _6
REMARK    4  A    between atoms: _6  and  _7
REMARK    5  A    between atoms: _7  and  _8
REMARK    6  A    between atoms: _8  and  _9
REMARK    7  A    between atoms: _18  and  _20
REMARK    8  A    between atoms: _20  and  _21
REMARK    9  A    between atoms: _20  and  _23
REMARK   10  A    between atoms: _23  and  _24
REMARK   11  A    between atoms: _27  and  _29
REMARK   12  A    between atoms: _29  and  _30
REMARK   13  A    between atoms: _29  and  _32
REMARK   14  A    between atoms: _32  and  _33
REMARK   15  A    between atoms: _36  and  _38
REMARK   16  A    between atoms: _38  and  _39
REMARK   17  A    between atoms: _38  and  _41
REMARK   18  A    between atoms: _41  and  _42
REMARK   19  A    between atoms: _45  and  _47
REMARK   20  A    between atoms: _47  and  _48
REMARK   21  A    between atoms: _47  and  _50
REMARK   22  A    between atoms: _50  and  _51
REMARK   23  A    between atoms: _54  and  _56
REMARK   24  A    between atoms: _56  and  _57
REMARK   25  A    between atoms: _56  and  _59
REMARK   26  A    between atoms: _59  and  _60
REMARK   27  A    between atoms: _63  and  _65
REMARK   28  A    between atoms: _65  and  _66
REMARK   29  A    between atoms: _68  and  _70
REMARK   30  A    between atoms: _70  and  _71
REMARK   31  A    between atoms: _74  and  _76
REMARK   32  A    between atoms: _76  and  _77
REMARK   33  A    between atoms: _76  and  _79
REMARK   34  A    between atoms: _79  and  _80
REMARK   35  A    between atoms: _83  and  _85
REMARK   36  A    between atoms: _85  and  _86
REMARK   37  A    between atoms: _85  and  _88
REMARK   38  A    between atoms: _88  and  _89
REMARK   39  A    between atoms: _92  and  _94
REMARK   40  A    between atoms: _94  and  _95
REMARK   41  A    between atoms: _94  and  _97
REMARK   42  A    between atoms: _97  and  _98
REMARK   43  A    between atoms: _101  and  _103
REMARK   44  A    between atoms: _103  and  _104
REMARK   45  A    between atoms: _103  and  _106
REMARK   46  A    between atoms: _109  and  _111
REMARK   47  A    between atoms: _111  and  _112
REMARK   48  A    between atoms: _111  and  _114
REMARK   49  A    between atoms: _114  and  _115
REMARK   50  A    between atoms: _118  and  _120
REMARK   51  A    between atoms: _120  and  _121
REMARK   52  A    between atoms: _120  and  _123
REMARK   53  A    between atoms: _123  and  _124
REMARK   54  A    between atoms: _129  and  _131
REMARK   55  A    between atoms: _131  and  _132
REMARK   56  A    between atoms: _134  and  _136
REMARK   57  A    between atoms: _136  and  _137
REMARK   58  A    between atoms: _136  and  _139
REMARK   59  A    between atoms: _139  and  _140
REMARK   60  A    between atoms: _143  and  _145
REMARK   61  A    between atoms: _145  and  _146
REMARK   62  A    between atoms: _148  and  _150
REMARK   63  A    between atoms: _150  and  _151
REMARK   64  A    between atoms: _153  and  _155
REMARK   65  A    between atoms: _155  and  _156
REMARK   66  A    between atoms: _155  and  _158
REMARK   67  A    between atoms: _158  and  _159
REMARK   68  A    between atoms: _163  and  _164
REMARK   69  A    between atoms: _169  and  _171
REMARK   70  A    between atoms: _171  and  _172
REMARK   71  A    between atoms: _171  and  _174
REMARK   72  A    between atoms: _174  and  _175
REMARK   73  A    between atoms: _179  and  _180
REMARK   74  A    between atoms: _185  and  _187
REMARK   75  A    between atoms: _187  and  _188
REMARK   76  A    between atoms: _187  and  _190
REMARK   77  A    between atoms: _193  and  _195
REMARK   78  A    between atoms: _195  and  _196
REMARK   79  A    between atoms: _195  and  _198
REMARK   80  A    between atoms: _198  and  _199
REMARK   81  A    between atoms: _204  and  _206
REMARK   82  A    between atoms: _206  and  _207
REMARK   83  A    between atoms: _206  and  _209
REMARK   84  A    between atoms: _209  and  _210
REMARK   85  A    between atoms: _213  and  _215
REMARK   86  A    between atoms: _215  and  _216
REMARK   87  A    between atoms: _218  and  _220
REMARK   88  A    between atoms: _220  and  _221
REMARK   89  A    between atoms: _220  and  _223
REMARK   90  A    between atoms: _223  and  _224
REMARK   91  A    between atoms: _224  and  _225
REMARK   92  A    between atoms: _225  and  _226
REMARK   93  A    between atoms: _235  and  _237
REMARK   94  A    between atoms: _237  and  _238
REMARK   95  A    between atoms: _237  and  _240
REMARK   96  A    between atoms: _240  and  _241
REMARK   97  A    between atoms: _241  and  _242
REMARK   98  A    between atoms: _242  and  _243
REMARK   99  A    between atoms: _252  and  _254
REMARK  100  A    between atoms: _254  and  _255
REMARK  101  A    between atoms: _254  and  _257
REMARK  102  A    between atoms: _257  and  _258
REMARK  103  A    between atoms: _261  and  _263
REMARK  104  A    between atoms: _263  and  _264
REMARK  105  A    between atoms: _263  and  _266
REMARK  106  A    between atoms: _266  and  _267
REMARK  107  A    between atoms: _270  and  _272
REMARK  108  A    between atoms: _272  and  _273
REMARK  109  A    between atoms: _272  and  _275
REMARK  110  A    between atoms: _275  and  _276
REMARK  111  A    between atoms: _279  and  _281
REMARK  112  A    between atoms: _281  and  _282
REMARK  113  A    between atoms: _281  and  _284
REMARK  114  A    between atoms: _284  and  _285
REMARK  115  A    between atoms: _288  and  _290
REMARK  116  A    between atoms: _290  and  _291
REMARK  117  A    between atoms: _293  and  _295
REMARK  118  A    between atoms: _295  and  _296
REMARK  119  A    between atoms: _299  and  _301
REMARK  120  A    between atoms: _301  and  _302
REMARK  121  A    between atoms: _301  and  _304
REMARK  122  A    between atoms: _304  and  _305
REMARK  123  A    between atoms: _308  and  _310
REMARK  124  A    between atoms: _310  and  _311
REMARK  125  A    between atoms: _310  and  _313
REMARK  126  A    between atoms: _313  and  _314
REMARK  127  A    between atoms: _317  and  _319
REMARK  128  A    between atoms: _319  and  _320
REMARK  129  A    between atoms: _319  and  _322
REMARK  130  A    between atoms: _322  and  _323
REMARK  131  A    between atoms: _326  and  _328
REMARK  132  A    between atoms: _328  and  _329
REMARK  133  A    between atoms: _328  and  _331
REMARK  134  A    between atoms: _334  and  _336
REMARK  135  A    between atoms: _336  and  _337
REMARK  136  A    between atoms: _336  and  _339
REMARK  137  A    between atoms: _339  and  _340
REMARK  138  A    between atoms: _340  and  _341
REMARK  139  A    between atoms: _341  and  _342
REMARK  140  A    between atoms: _342  and  _343
REMARK  141  A    between atoms: _347  and  _349
REMARK  142  A    between atoms: _349  and  _350
REMARK  143  A    between atoms: _349  and  _352
REMARK  144  A    between atoms: _352  and  _353
REMARK  145  A    between atoms: _353  and  _354
REMARK  146  A    between atoms: _356  and  _358
REMARK  147  A    between atoms: _358  and  _359
REMARK  148  A    between atoms: _358  and  _361
REMARK  149  A    between atoms: _361  and  _362
REMARK  150  A    between atoms: _365  and  _367
REMARK  151  A    between atoms: _367  and  _368
REMARK  152  A    between atoms: _367  and  _370
REMARK  153  A    between atoms: _370  and  _371
REMARK  154  A    between atoms: _376  and  _378
REMARK  155  A    between atoms: _378  and  _379
REMARK  156  A    between atoms: _381  and  _383
REMARK  157  A    between atoms: _383  and  _384
REMARK  158  A    between atoms: _383  and  _386
REMARK  159  A    between atoms: _386  and  _387
REMARK  160  A    between atoms: _390  and  _392
REMARK  161  A    between atoms: _392  and  _393
REMARK  162  A    between atoms: _395  and  _397
REMARK  163  A    between atoms: _397  and  _398
REMARK  164  A    between atoms: _400  and  _402
REMARK  165  A    between atoms: _402  and  _403
REMARK  166  A    between atoms: _402  and  _405
REMARK  167  A    between atoms: _405  and  _406
REMARK  168  A    between atoms: _412  and  _414
REMARK  169  A    between atoms: _414  and  _415
REMARK  170  A    between atoms: _414  and  _417
REMARK  171  A    between atoms: _417  and  _418
REMARK  172  A    between atoms: _421  and  _423
REMARK  173  A    between atoms: _423  and  _424
REMARK  174  A    between atoms: _423  and  _426
REMARK  175  A    between atoms: _429  and  _431
REMARK  176  A    between atoms: _431  and  _432
REMARK  177  A    between atoms: _431  and  _434
REMARK  178  A    between atoms: _434  and  _435
REMARK  179  A    between atoms: _439  and  _440
REMARK  180  A    between atoms: _445  and  _447
REMARK  181  A    between atoms: _447  and  _448
REMARK  182  A    between atoms: _447  and  _450
REMARK  183  A    between atoms: _450  and  _451
REMARK  184  A    between atoms: _455  and  _456
REMARK  185  A    between atoms: _461  and  _463
REMARK  186  A    between atoms: _463  and  _464
REMARK  187  A    between atoms: _463  and  _466
REMARK  188  A    between atoms: _469  and  _471
REMARK  189  A    between atoms: _471  and  _472
REMARK  190  A    between atoms: _471  and  _474
REMARK  191  A    between atoms: _474  and  _475
REMARK  192  A    between atoms: _480  and  _482
REMARK  193  A    between atoms: _482  and  _483
REMARK  194  A    between atoms: _482  and  _485
REMARK  195  A    between atoms: _485  and  _486
REMARK  196  A    between atoms: _489  and  _491
REMARK  197  A    between atoms: _491  and  _492
REMARK  198  A    between atoms: _491  and  _494
REMARK  199  A    between atoms: _494  and  _495
REMARK  200  A    between atoms: _498  and  _500
REMARK  201  A    between atoms: _500  and  _501
REMARK  202  A    between atoms: _503  and  _505
REMARK  203  A    between atoms: _505  and  _506
REMARK  204  A    between atoms: _505  and  _508
REMARK  205  A    between atoms: _508  and  _509
REMARK  206  A    between atoms: _509  and  _510
REMARK  207  A    between atoms: _510  and  _511
REMARK  208  A    between atoms: _520  and  _522
REMARK  209  A    between atoms: _522  and  _523
REMARK  210  A    between atoms: _522  and  _525
REMARK  211  A    between atoms: _525  and  _526
REMARK                            x       y       z     vdW  Elec       q    Type
REMARK                         _______ _______ _______ _____ _____    ______ ____
ROOT
ATOM      1  NE  ARG A   1      36.664  13.064  69.778  0.00  0.00    -0.265 N 
ATOM      2  CZ  ARG A   1      35.334  13.018  69.746  0.00  0.00    +0.342 C 
ATOM      3  NH2 ARG A   1      34.645  12.862  70.873  0.00  0.00    -0.292 N 
ATOM      4 HH21 ARG A   1      35.145  12.776  71.781  0.00  0.00    +0.255 HD
ATOM      5 HH22 ARG A   1      33.606  12.826  70.847  0.00  0.00    +0.255 HD
ATOM      6  NH1 ARG A   1      34.693  13.064  68.585  0.00  0.00    -0.292 N 
ATOM      7 HH11 ARG A   1      33.654  13.028  68.563  0.00  0.00    +0.255 HD
ATOM      8 HH12 ARG A   1      35.230  13.136  67.697  0.00  0.00    +0.255 HD
ATOM      9  HE  ARG A   1      37.169  13.200  68.879  0.00  0.00    +0.259 HD
ENDROOT
BRANCH   1  10
ATOM     10  CD  ARG A   1      37.457  12.935  70.995  0.00  0.00    +0.174 C 
BRANCH  10  11
ATOM     11  CG  ARG A   1      37.699  11.480  71.307  0.00  0.00    +0.045 C 
BRANCH  11  12
ATOM     12  CB  ARG A   1      38.360  11.318  72.648  0.00  0.00    +0.029 C 
BRANCH  12  13
ATOM     13  CA  ARG A   1      39.458  10.255  72.673  0.00  0.00    +0.133 C 
BRANCH  13  14
ATOM     14  N   ARG A   1      38.876   8.945  72.522  0.00  0.00    -0.239 NA
ATOM     15  H   ARG A   1      37.870   8.886  72.266  0.00  0.00    +0.142 HD
ENDBRANCH  13  14
BRANCH  13  16
ATOM     16  C   ARG A   1      40.211  10.354  73.981  0.00  0.00    +0.224 C 
ATOM     17  O   ARG A   1      39.691   9.961  75.030  0.00  0.00    -0.287 OA
ENDBRANCH  13  16
ENDBRANCH  12  13
ENDBRANCH  11  12
ENDBRANCH  10  11
ENDBRANCH   1  10
TORSDOF 6
REMARK  Name = ../refined-set-2016/1a9m/1a9m_pocket.pdb
REMARK  211 active torsions:
REMARK  status: ('A' for Active; 'I' for Inactive)
REMARK    1  A    between atoms: _1  and  _3
REMARK    2  A    between atoms: _3  and  _4
REMARK    3  A    between atoms: _3  and  _6
REMARK    4  A    between atoms: _6  and  _7
REMARK    5  A    between atoms: _7  and  _8
REMARK    6  A    between atoms: _8  and  _9
REMARK    7  A    between atoms: _18  and  _20
REMARK    8  A    between atoms: _20  and  _21
REMARK    9  A    between atoms: _20  and  _23
REMARK   10  A    between atoms: _23  and  _24
REMARK   11  A    between atoms: _27  and  _29
REMARK   12  A    between atoms: _29  and  _30
REMARK   13  A    between atoms: _29  and  _32
REMARK   14  A    between atoms: _32  and  _33
REMARK   15  A    between atoms: _36  and  _38
REMARK   16  A    between atoms: _38  and  _39
REMARK   17  A    between atoms: _38  and  _41
REMARK   18  A    between atoms: _41  and  _42
REMARK   19  A    between atoms: _45  and  _47
REMARK   20  A    between atoms: _47  and  _48
REMARK   21  A    between atoms: _47  and  _50
REMARK   22  A    between atoms: _50  and  _51
REMARK   23  A    between atoms: _54  and  _56
REMARK   24  A    between atoms: _56  and  _57
REMARK   25  A    between atoms: _56  and  _59
REMARK   26  A    between atoms: _59  and  _60
REMARK   27  A    between atoms: _63  and  _65
REMARK   28  A    between atoms: _65  and  _66
REMARK   29  A    between atoms: _68  and  _70
REMARK   30  A    between atoms: _70  and  _71
REMARK   31  A    between atoms: _74  and  _76
REMARK   32  A    between atoms: _76  and  _77
REMARK   33  A    between atoms: _76  and  _79
REMARK   34  A    between atoms: _79  and  _80
REMARK   35  A    between atoms: _83  and  _85
REMARK   36  A    between atoms: _85  and  _86
REMARK   37  A    between atoms: _85  and  _88
REMARK   38  A    between atoms: _88  and  _89
REMARK   39  A    between atoms: _92  and  _94
REMARK   40  A    between atoms: _94  and  _95
REMARK   41  A    between atoms: _94  and  _97
REMARK   42  A    between atoms: _97  and  _98
REMARK   43  A    between atoms: _101  and  _103
REMARK   44  A    between atoms: _103  and  _104
REMARK   45  A    between atoms: _103  and  _106
REMARK   46  A    between atoms: _109  and  _111
REMARK   47  A    between atoms: _111  and  _112
REMARK   48  A    between atoms: _111  and  _114
REMARK   49  A    between atoms: _114  and  _115
REMARK   50  A    between atoms: _118  and  _120
REMARK   51  A    between atoms: _120  and  _121
REMARK   52  A    between atoms: _120  and  _123
REMARK   53  A    between atoms: _123  and  _124
REMARK   54  A    between atoms: _129  and  _131
REMARK   55  A    between atoms: _131  and  _132
REMARK   56  A    between atoms: _134  and  _136
REMARK   57  A    between atoms: _136  and  _137
REMARK   58  A    between atoms: _136  and  _139
REMARK   59  A    between atoms: _139  and  _140
REMARK   60  A    between atoms: _143  and  _145
REMARK   61  A    between atoms: _145  and  _146
REMARK   62  A    between atoms: _148  and  _150
REMARK   63  A    between atoms: _150  and  _151
REMARK   64  A    between atoms: _153  and  _155
REMARK   65  A    between atoms: _155  and  _156
REMARK   66  A    between atoms: _155  and  _158
REMARK   67  A    between atoms: _158  and  _159
REMARK   68  A    between atoms: _163  and  _164
REMARK   69  A    between atoms: _169  and  _171
REMARK   70  A    between atoms: _171  and  _172
REMARK   71  A    between atoms: _171  and  _174
REMARK   72  A    between atoms: _174  and  _175
REMARK   73  A    between atoms: _179  and  _180
REMARK   74  A    between atoms: _185  and  _187
REMARK   75  A    between atoms: _187  and  _188
REMARK   76  A    between atoms: _187  and  _190
REMARK   77  A    between atoms: _193  and  _195
REMARK   78  A    between atoms: _195  and  _196
REMARK   79  A    between atoms: _195  and  _198
REMARK   80  A    between atoms: _198  and  _199
REMARK   81  A    between atoms: _204  and  _206
REMARK   82  A    between atoms: _206  and  _207
REMARK   83  A    between atoms: _206  and  _209
REMARK   84  A    between atoms: _209  and  _210
REMARK   85  A    between atoms: _213  and  _215
REMARK   86  A    between atoms: _215  and  _216
REMARK   87  A    between atoms: _218  and  _220
REMARK   88  A    between atoms: _220  and  _221
REMARK   89  A    between atoms: _220  and  _223
REMARK   90  A    between atoms: _223  and  _224
REMARK   91  A    between atoms: _224  and  _225
REMARK   92  A    between atoms: _225  and  _226
REMARK   93  A    between atoms: _235  and  _237
REMARK   94  A    between atoms: _237  and  _238
REMARK   95  A    between atoms: _237  and  _240
REMARK   96  A    between atoms: _240  and  _241
REMARK   97  A    between atoms: _241  and  _242
REMARK   98  A    between atoms: _242  and  _243
REMARK   99  A    between atoms: _252  and  _254
REMARK  100  A    between atoms: _254  and  _255
REMARK  101  A    between atoms: _254  and  _257
REMARK  102  A    between atoms: _257  and  _258
REMARK  103  A    between atoms: _261  and  _263
REMARK  104  A    between atoms: _263  and  _264
REMARK  105  A    between atoms: _263  and  _266
REMARK  106  A    between atoms: _266  and  _267
REMARK  107  A    between atoms: _270  and  _272
REMARK  108  A    between atoms: _272  and  _273
REMARK  109  A    between atoms: _272  and  _275
REMARK  110  A    between atoms: _275  and  _276
REMARK  111  A    between atoms: _279  and  _281
REMARK  112  A    between atoms: _281  and  _282
REMARK  113  A    between atoms: _281  and  _284
REMARK  114  A    between atoms: _284  and  _285
REMARK  115  A    between atoms: _288  and  _290
REMARK  116  A    between atoms: _290  and  _291
REMARK  117  A    between atoms: _293  and  _295
REMARK  118  A    between atoms: _295  and  _296
REMARK  119  A    between atoms: _299  and  _301
REMARK  120  A    between atoms: _301  and  _302
REMARK  121  A    between atoms: _301  and  _304
REMARK  122  A    between atoms: _304  and  _305
REMARK  123  A    between atoms: _308  and  _310
REMARK  124  A    between atoms: _310  and  _311
REMARK  125  A    between atoms: _310  and  _313
REMARK  126  A    between atoms: _313  and  _314
REMARK  127  A    between atoms: _317  and  _319
REMARK  128  A    between atoms: _319  and  _320
REMARK  129  A    between atoms: _319  and  _322
REMARK  130  A    between atoms: _322  and  _323
REMARK  131  A    between atoms: _326  and  _328
REMARK  132  A    between atoms: _328  and  _329
REMARK  133  A    between atoms: _328  and  _331
REMARK  134  A    between atoms: _334  and  _336
REMARK  135  A    between atoms: _336  and  _337
REMARK  136  A    between atoms: _336  and  _339
REMARK  137  A    between atoms: _339  and  _340
REMARK  138  A    between atoms: _340  and  _341
REMARK  139  A    between atoms: _341  and  _342
REMARK  140  A    between atoms: _342  and  _343
REMARK  141  A    between atoms: _347  and  _349
REMARK  142  A    between atoms: _349  and  _350
REMARK  143  A    between atoms: _349  and  _352
REMARK  144  A    between atoms: _352  and  _353
REMARK  145  A    between atoms: _353  and  _354
REMARK  146  A    between atoms: _356  and  _358
REMARK  147  A    between atoms: _358  and  _359
REMARK  148  A    between atoms: _358  and  _361
REMARK  149  A    between atoms: _361  and  _362
REMARK  150  A    between atoms: _365  and  _367
REMARK  151  A    between atoms: _367  and  _368
REMARK  152  A    between atoms: _367  and  _370
REMARK  153  A    between atoms: _370  and  _371
REMARK  154  A    between atoms: _376  and  _378
REMARK  155  A    between atoms: _378  and  _379
REMARK  156  A    between atoms: _381  and  _383
REMARK  157  A    between atoms: _383  and  _384
REMARK  158  A    between atoms: _383  and  _386
REMARK  159  A    between atoms: _386  and  _387
REMARK  160  A    between atoms: _390  and  _392
REMARK  161  A    between atoms: _392  and  _393
REMARK  162  A    between atoms: _395  and  _397
REMARK  163  A    between atoms: _397  and  _398
REMARK  164  A    between atoms: _400  and  _402
REMARK  165  A    between atoms: _402  and  _403
REMARK  166  A    between atoms: _402  and  _405
REMARK  167  A    between atoms: _405  and  _406
REMARK  168  A    between atoms: _412  and  _414
REMARK  169  A    between atoms: _414  and  _415
REMARK  170  A    between atoms: _414  and  _417
REMARK  171  A    between atoms: _417  and  _418
REMARK  172  A    between atoms: _421  and  _423
REMARK  173  A    between atoms: _423  and  _424
REMARK  174  A    between atoms: _423  and  _426
REMARK  175  A    between atoms: _429  and  _431
REMARK  176  A    between atoms: _431  and  _432
REMARK  177  A    between atoms: _431  and  _434
REMARK  178  A    between atoms: _434  and  _435
REMARK  179  A    between atoms: _439  and  _440
REMARK  180  A    between atoms: _445  and  _447
REMARK  181  A    between atoms: _447  and  _448
REMARK  182  A    between atoms: _447  and  _450
REMARK  183  A    between atoms: _450  and  _451
REMARK  184  A    between atoms: _455  and  _456
REMARK  185  A    between atoms: _461  and  _463
REMARK  186  A    between atoms: _463  and  _464
REMARK  187  A    between atoms: _463  and  _466
REMARK  188  A    between atoms: _469  and  _471
REMARK  189  A    between atoms: _471  and  _472
REMARK  190  A    between atoms: _471  and  _474
REMARK  191  A    between atoms: _474  and  _475
REMARK  192  A    between atoms: _480  and  _482
REMARK  193  A    between atoms: _482  and  _483
REMARK  194  A    between atoms: _482  and  _485
REMARK  195  A    between atoms: _485  and  _486
REMARK  196  A    between atoms: _489  and  _491
REMARK  197  A    between atoms: _491  and  _492
REMARK  198  A    between atoms: _491  and  _494
REMARK  199  A    between atoms: _494  and  _495
REMARK  200  A    between atoms: _498  and  _500
REMARK  201  A    between atoms: _500  and  _501
REMARK  202  A    between atoms: _503  and  _505
REMARK  203  A    between atoms: _505  and  _506
REMARK  204  A    between atoms: _505  and  _508
REMARK  205  A    between atoms: _508  and  _509
REMARK  206  A    between atoms: _509  and  _510
REMARK  207  A    between atoms: _510  and  _511
REMARK  208  A    between atoms: _520  and  _522
REMARK  209  A    between atoms: _522  and  _523
REMARK  210  A    between atoms: _522  and  _525
REMARK  211  A    between atoms: _525  and  _526
REMARK                            x       y       z     vdW  Elec       q    Type
REMARK                         _______ _______ _______ _____ _____    ______ ____
ROOT
ATOM      1  CA  LEU A   1      40.213  13.234  77.426  0.00  0.00    +0.133 C 
ENDROOT
BRANCH   1   2
ATOM      2  N   LEU A   1      40.650  12.149  76.545  0.00  0.00    -0.239 NA
ATOM      3  H   LEU A   1      39.988  11.380  76.315  0.00  0.00    +0.142 HD
ENDBRANCH   1   2
BRANCH   1   4
ATOM      4  C   LEU A   1      40.880  13.035  78.756  0.00  0.00    +0.224 C 
ATOM      5  O   LEU A   1      40.998  11.924  79.262  0.00  0.00    -0.287 OA
ENDBRANCH   1   4
BRANCH   1   6
ATOM      6  CB  LEU A   1      38.709  13.265  77.635  0.00  0.00    +0.025 C 
BRANCH   6   7
ATOM      7  CG  LEU A   1      37.900  13.908  76.522  0.00  0.00    +0.002 C 
ATOM      8  CD2 LEU A   1      38.643  15.078  75.923  0.00  0.00    +0.000 C 
ATOM      9  CD1 LEU A   1      37.646  12.885  75.475  0.00  0.00    +0.000 C 
ENDBRANCH   6   7
ENDBRANCH   1   6
TORSDOF 4
REMARK  Name = ../refined-set-2016/1a9m/1a9m_pocket.pdb
REMARK  211 active torsions:
REMARK  status: ('A' for Active; 'I' for Inactive)
REMARK    1  A    between atoms: _1  and  _3
REMARK    2  A    between atoms: _3  and  _4
REMARK    3  A    between atoms: _3  and  _6
REMARK    4  A    between atoms: _6  and  _7
REMARK    5  A    between atoms: _7  and  _8
REMARK    6  A    between atoms: _8  and  _9
REMARK    7  A    between atoms: _18  and  _20
REMARK    8  A    between atoms: _20  and  _21
REMARK    9  A    between atoms: _20  and  _23
REMARK   10  A    between atoms: _23  and  _24
REMARK   11  A    between atoms: _27  and  _29
REMARK   12  A    between atoms: _29  and  _30
REMARK   13  A    between atoms: _29  and  _32
REMARK   14  A    between atoms: _32  and  _33
REMARK   15  A    between atoms: _36  and  _38
REMARK   16  A    between atoms: _38  and  _39
REMARK   17  A    between atoms: _38  and  _41
REMARK   18  A    between atoms: _41  and  _42
REMARK   19  A    between atoms: _45  and  _47
REMARK   20  A    between atoms: _47  and  _48
REMARK   21  A    between atoms: _47  and  _50
REMARK   22  A    between atoms: _50  and  _51
REMARK   23  A    between atoms: _54  and  _56
REMARK   24  A    between atoms: _56  and  _57
REMARK   25  A    between atoms: _56  and  _59
REMARK   26  A    between atoms: _59  and  _60
REMARK   27  A    between atoms: _63  and  _65
REMARK   28  A    between atoms: _65  and  _66
REMARK   29  A    between atoms: _68  and  _70
REMARK   30  A    between atoms: _70  and  _71
REMARK   31  A    between atoms: _74  and  _76
REMARK   32  A    between atoms: _76  and  _77
REMARK   33  A    between atoms: _76  and  _79
REMARK   34  A    between atoms: _79  and  _80
REMARK   35  A    between atoms: _83  and  _85
REMARK   36  A    between atoms: _85  and  _86
REMARK   37  A    between atoms: _85  and  _88
REMARK   38  A    between atoms: _88  and  _89
REMARK   39  A    between atoms: _92  and  _94
REMARK   40  A    between atoms: _94  and  _95
REMARK   41  A    between atoms: _94  and  _97
REMARK   42  A    between atoms: _97  and  _98
REMARK   43  A    between atoms: _101  and  _103
REMARK   44  A    between atoms: _103  and  _104
REMARK   45  A    between atoms: _103  and  _106
REMARK   46  A    between atoms: _109  and  _111
REMARK   47  A    between atoms: _111  and  _112
REMARK   48  A    between atoms: _111  and  _114
REMARK   49  A    between atoms: _114  and  _115
REMARK   50  A    between atoms: _118  and  _120
REMARK   51  A    between atoms: _120  and  _121
REMARK   52  A    between atoms: _120  and  _123
REMARK   53  A    between atoms: _123  and  _124
REMARK   54  A    between atoms: _129  and  _131
REMARK   55  A    between atoms: _131  and  _132
REMARK   56  A    between atoms: _134  and  _136
REMARK   57  A    between atoms: _136  and  _137
REMARK   58  A    between atoms: _136  and  _139
REMARK   59  A    between atoms: _139  and  _140
REMARK   60  A    between atoms: _143  and  _145
REMARK   61  A    between atoms: _145  and  _146
REMARK   62  A    between atoms: _148  and  _150
REMARK   63  A    between atoms: _150  and  _151
REMARK   64  A    between atoms: _153  and  _155
REMARK   65  A    between atoms: _155  and  _156
REMARK   66  A    between atoms: _155  and  _158
REMARK   67  A    between atoms: _158  and  _159
REMARK   68  A    between atoms: _163  and  _164
REMARK   69  A    between atoms: _169  and  _171
REMARK   70  A    between atoms: _171  and  _172
REMARK   71  A    between atoms: _171  and  _174
REMARK   72  A    between atoms: _174  and  _175
REMARK   73  A    between atoms: _179  and  _180
REMARK   74  A    between atoms: _185  and  _187
REMARK   75  A    between atoms: _187  and  _188
REMARK   76  A    between atoms: _187  and  _190
REMARK   77  A    between atoms: _193  and  _195
REMARK   78  A    between atoms: _195  and  _196
REMARK   79  A    between atoms: _195  and  _198
REMARK   80  A    between atoms: _198  and  _199
REMARK   81  A    between atoms: _204  and  _206
REMARK   82  A    between atoms: _206  and  _207
REMARK   83  A    between atoms: _206  and  _209
REMARK   84  A    between atoms: _209  and  _210
REMARK   85  A    between atoms: _213  and  _215
REMARK   86  A    between atoms: _215  and  _216
REMARK   87  A    between atoms: _218  and  _220
REMARK   88  A    between atoms: _220  and  _221
REMARK   89  A    between atoms: _220  and  _223
REMARK   90  A    between atoms: _223  and  _224
REMARK   91  A    between atoms: _224  and  _225
REMARK   92  A    between atoms: _225  and  _226
REMARK   93  A    between atoms: _235  and  _237
REMARK   94  A    between atoms: _237  and  _238
REMARK   95  A    between atoms: _237  and  _240
REMARK   96  A    between atoms: _240  and  _241
REMARK   97  A    between atoms: _241  and  _242
REMARK   98  A    between atoms: _242  and  _243
REMARK   99  A    between atoms: _252  and  _254
REMARK  100  A    between atoms: _254  and  _255
REMARK  101  A    between atoms: _254  and  _257
REMARK  102  A    between atoms: _257  and  _258
REMARK  103  A    between atoms: _261  and  _263
REMARK  104  A    between atoms: _263  and  _264
REMARK  105  A    between atoms: _263  and  _266
REMARK  106  A    between atoms: _266  and  _267
REMARK  107  A    between atoms: _270  and  _272
REMARK  108  A    between atoms: _272  and  _273
REMARK  109  A    between atoms: _272  and  _275
REMARK  110  A    between atoms: _275  and  _276
REMARK  111  A    between atoms: _279  and  _281
REMARK  112  A    between atoms: _281  and  _282
REMARK  113  A    between atoms: _281  and  _284
REMARK  114  A    between atoms: _284  and  _285
REMARK  115  A    between atoms: _288  and  _290
REMARK  116  A    between atoms: _290  and  _291
REMARK  117  A    between atoms: _293  and  _295
REMARK  118  A    between atoms: _295  and  _296
REMARK  119  A    between atoms: _299  and  _301
REMARK  120  A    between atoms: _301  and  _302
REMARK  121  A    between atoms: _301  and  _304
REMARK  122  A    between atoms: _304  and  _305
REMARK  123  A    between atoms: _308  and  _310
REMARK  124  A    between atoms: _310  and  _311
REMARK  125  A    between atoms: _310  and  _313
REMARK  126  A    between atoms: _313  and  _314
REMARK  127  A    between atoms: _317  and  _319
REMARK  128  A    between atoms: _319  and  _320
REMARK  129  A    between atoms: _319  and  _322
REMARK  130  A    between atoms: _322  and  _323
REMARK  131  A    between atoms: _326  and  _328
REMARK  132  A    between atoms: _328  and  _329
REMARK  133  A    between atoms: _328  and  _331
REMARK  134  A    between atoms: _334  and  _336
REMARK  135  A    between atoms: _336  and  _337
REMARK  136  A    between atoms: _336  and  _339
REMARK  137  A    between atoms: _339  and  _340
REMARK  138  A    between atoms: _340  and  _341
REMARK  139  A    between atoms: _341  and  _342
REMARK  140  A    between atoms: _342  and  _343
REMARK  141  A    between atoms: _347  and  _349
REMARK  142  A    between atoms: _349  and  _350
REMARK  143  A    between atoms: _349  and  _352
REMARK  144  A    between atoms: _352  and  _353
REMARK  145  A    between atoms: _353  and  _354
REMARK  146  A    between atoms: _356  and  _358
REMARK  147  A    between atoms: _358  and  _359
REMARK  148  A    between atoms: _358  and  _361
REMARK  149  A    between atoms: _361  and  _362
REMARK  150  A    between atoms: _365  and  _367
REMARK  151  A    between atoms: _367  and  _368
REMARK  152  A    between atoms: _367  and  _370
REMARK  153  A    between atoms: _370  and  _371
REMARK  154  A    between atoms: _376  and  _378
REMARK  155  A    between atoms: _378  and  _379
REMARK  156  A    between atoms: _381  and  _383
REMARK  157  A    between atoms: _383  and  _384
REMARK  158  A    between atoms: _383  and  _386
REMARK  159  A    between atoms: _386  and  _387
REMARK  160  A    between atoms: _390  and  _392
REMARK  161  A    between atoms: _392  and  _393
REMARK  162  A    between atoms: _395  and  _397
REMARK  163  A    between atoms: _397  and  _398
REMARK  164  A    between atoms: _400  and  _402
REMARK  165  A    between atoms: _402  and  _403
REMARK  166  A    between atoms: _402  and  _405
REMARK  167  A    between atoms: _405  and  _406
REMARK  168  A    between atoms: _412  and  _414
REMARK  169  A    between atoms: _414  and  _415
REMARK  170  A    between atoms: _414  and  _417
REMARK  171  A    between atoms: _417  and  _418
REMARK  172  A    between atoms: _421  and  _423
REMARK  173  A    between atoms: _423  and  _424
REMARK  174  A    between atoms: _423  and  _426
REMARK  175  A    between atoms: _429  and  _431
REMARK  176  A    between atoms: _431  and  _432
REMARK  177  A    between atoms: _431  and  _434
REMARK  178  A    between atoms: _434  and  _435
REMARK  179  A    between atoms: _439  and  _440
REMARK  180  A    between atoms: _445  and  _447
REMARK  181  A    between atoms: _447  and  _448
REMARK  182  A    between atoms: _447  and  _450
REMARK  183  A    between atoms: _450  and  _451
REMARK  184  A    between atoms: _455  and  _456
REMARK  185  A    between atoms: _461  and  _463
REMARK  186  A    between atoms: _463  and  _464
REMARK  187  A    between atoms: _463  and  _466
REMARK  188  A    between atoms: _469  and  _471
REMARK  189  A    between atoms: _471  and  _472
REMARK  190  A    between atoms: _471  and  _474
REMARK  191  A    between atoms: _474  and  _475
REMARK  192  A    between atoms: _480  and  _482
REMARK  193  A    between atoms: _482  and  _483
REMARK  194  A    between atoms: _482  and  _485
REMARK  195  A    between atoms: _485  and  _486
REMARK  196  A    between atoms: _489  and  _491
REMARK  197  A    between atoms: _491  and  _492
REMARK  198  A    between atoms: _491  and  _494
REMARK  199  A    between atoms: _494  and  _495
REMARK  200  A    between atoms: _498  and  _500
REMARK  201  A    between atoms: _500  and  _501
REMARK  202  A    between atoms: _503  and  _505
REMARK  203  A    between atoms: _505  and  _506
REMARK  204  A    between atoms: _505  and  _508
REMARK  205  A    between atoms: _508  and  _509
REMARK  206  A    between atoms: _509  and  _510
REMARK  207  A    between atoms: _510  and  _511
REMARK  208  A    between atoms: _520  and  _522
REMARK  209  A    between atoms: _522  and  _523
REMARK  210  A    between atoms: _522  and  _525
REMARK  211  A    between atoms: _525  and  _526
REMARK                            x       y       z     vdW  Elec       q    Type
REMARK                         _______ _______ _______ _____ _____    ______ ____
ROOT
ATOM      1  C   GLY A   5      48.689  19.085  66.708  0.00  0.00    +0.243 C 
ATOM      2  N   ALA A   6      48.506  19.439  67.984  0.00  0.00    -0.297 N 
ATOM      3  H   ALA A   6      48.386  18.702  68.708  0.00  0.00    +0.150 HD
ATOM      4  O   GLY A   5      48.809  19.905  65.800  0.00  0.00    -0.273 OA
ENDROOT
BRANCH   2   5
ATOM      5  CA  ALA A   6      48.472  20.848  68.377  0.00  0.00    +0.149 C 
ATOM      6  CB  ALA A   6      47.335  21.117  69.376  0.00  0.00    +0.031 C 
BRANCH   5   7
ATOM      7  C   ALA A   6      49.815  21.354  68.913  0.00  0.00    +0.241 C 
ATOM      8  O   ALA A   6      50.385  20.780  69.832  0.00  0.00    -0.273 OA
ATOM      9  N   ASP A   7      50.366  22.377  68.275  0.00  0.00    -0.297 N 
ATOM     10  H   ASP A   7      49.895  22.781  67.440  0.00  0.00    +0.150 HD
BRANCH   9  11
ATOM     11  CA  ASP A   7      51.630  22.939  68.738  0.00  0.00    +0.160 C 
BRANCH  11  12
ATOM     12  C   ASP A   7      51.428  23.498  70.136  0.00  0.00    +0.241 C 
ATOM     13  O   ASP A   7      52.257  23.320  71.021  0.00  0.00    -0.273 OA
ATOM     14  N   ASP A   8      50.323  24.227  70.269  0.00  0.00    -0.297 N 
ATOM     15  H   ASP A   8      49.697  24.294  69.441  0.00  0.00    +0.150 HD
BRANCH  14  16
ATOM     16  CA  ASP A   8      49.911  24.941  71.472  0.00  0.00    +0.160 C 
BRANCH  16  17
ATOM     17  C   ASP A   8      48.710  24.346  72.211  0.00  0.00    +0.241 C 
ATOM     18  N   THR A   9      48.420  24.940  73.366  0.00  0.00    -0.295 N 
ATOM     19  H   THR A   9      49.032  25.723  73.674  0.00  0.00    +0.150 HD
ATOM     20  O   ASP A   8      48.032  23.438  71.722  0.00  0.00    -0.273 OA
BRANCH  18  21
ATOM     21  CA  THR A   9      47.301  24.570  74.234  0.00  0.00    +0.176 C 
BRANCH  21  22
ATOM     22  C   THR A   9      46.170  25.600  74.047  0.00  0.00    +0.243 C 
ATOM     23  O   THR A   9      46.374  26.783  74.275  0.00  0.00    -0.273 OA
ATOM     24  N   VAL A  10      44.991  25.170  73.608  0.00  0.00    -0.298 N 
ATOM     25  H   VAL A  10      44.858  24.159  73.404  0.00  0.00    +0.150 HD
BRANCH  24  26
ATOM     26  CA  VAL A  10      43.873  26.103  73.407  0.00  0.00    +0.137 C 
BRANCH  26  27
ATOM     27  CB  VAL A  10      43.339  26.110  71.939  0.00  0.00    +0.026 C 
ATOM     28  CG2 VAL A  10      42.432  27.309  71.730  0.00  0.00    +0.002 C 
ATOM     29  CG1 VAL A  10      44.483  26.130  70.944  0.00  0.00    +0.002 C 
ENDBRANCH  26  27
BRANCH  26  30
ATOM     30  C   VAL A  10      42.728  25.722  74.317  0.00  0.00    +0.227 C 
ATOM     31  O   VAL A  10      42.312  24.579  74.357  0.00  0.00    -0.286 OA
ENDBRANCH  26  30
ENDBRANCH  24  26
ENDBRANCH  21  22
BRANCH  21  32
ATOM     32  CB  THR A   9      47.797  24.587  75.695  0.00  0.00    +0.137 C 
ATOM     33  CG2 THR A   9      46.653  24.414  76.707  0.00  0.00    +0.034 C 
BRANCH  32  34
ATOM     34  OG1 THR A   9      48.791  23.567  75.852  0.00  0.00    -0.382 OA
ATOM     35  HG1 THR A   9      49.546  23.746  75.237  0.00  0.00    +0.210 HD
ENDBRANCH  32  34
ENDBRANCH  21  32
ENDBRANCH  18  21
ENDBRANCH  16  17
BRANCH  16  36
ATOM     36  CB  ASP A   8      49.528  26.379  71.083  0.00  0.00    +0.143 C 
BRANCH  36  37
ATOM     37  CG  ASP A   8      50.722  27.238  70.653  0.00  0.00    +0.367 C 
ATOM     38  OD2 ASP A   8      51.588  27.549  71.523  0.00  0.00    -0.246 OA
ATOM     39  OD1 ASP A   8      50.740  27.664  69.463  0.00  0.00    -0.246 OA
ENDBRANCH  36  37
ENDBRANCH  16  36
ENDBRANCH  14  16
ENDBRANCH  11  12
BRANCH  11  40
ATOM     40  CB  ASP A   7      52.026  24.130  67.870  0.00  0.00    +0.143 C 
BRANCH  40  41
ATOM     41  CG  ASP A   7      52.441  23.751  66.472  0.00  0.00    +0.367 C 
ATOM     42  OD2 ASP A   7      52.907  22.620  66.257  0.00  0.00    -0.246 OA
ATOM     43  OD1 ASP A   7      52.337  24.613  65.581  0.00  0.00    -0.246 OA
ENDBRANCH  40  41
ENDBRANCH  11  40
ENDBRANCH   9  11
ENDBRANCH   5   7
ENDBRANCH   2   5
BRANCH   1  44
ATOM     44  CA  GLY A   5      48.730  17.607  66.391  0.00  0.00    +0.176 C 
BRANCH  44  47
ATOM     45  C   THR A   4      49.916  16.547  68.209  0.00  0.00    +0.243 C 
ATOM     46  O   THR A   4      50.993  16.989  67.805  0.00  0.00    -0.273 OA
ATOM     47  N   GLY A   5      48.765  16.803  67.597  0.00  0.00    -0.295 N 
ATOM     48  H   GLY A   5      47.879  16.422  67.987  0.00  0.00    +0.150 HD
BRANCH  45  49
ATOM     49  CA  THR A   4      49.838  15.691  69.486  0.00  0.00    +0.176 C 
BRANCH  49  52
ATOM     50  C   ASP A   3      47.919  16.619  70.711  0.00  0.00    +0.241 C 
ATOM     51  O   ASP A   3      48.478  17.709  70.821  0.00  0.00    -0.273 OA
ATOM     52  N   THR A   4      48.488  15.587  70.074  0.00  0.00    -0.295 N 
ATOM     53  H   THR A   4      47.966  14.691  69.992  0.00  0.00    +0.150 HD
BRANCH  50  54
ATOM     54  CA  ASP A   3      46.503  16.426  71.281  0.00  0.00    +0.160 C 
BRANCH  54  57
ATOM     55  C   LEU A   2      45.903  15.267  73.331  0.00  0.00    +0.241 C 
ATOM     56  O   LEU A   2      45.428  14.317  72.732  0.00  0.00    -0.273 OA
ATOM     57  N   ASP A   3      46.472  16.305  72.730  0.00  0.00    -0.297 N 
ATOM     58  H   ASP A   3      46.907  17.051  73.310  0.00  0.00    +0.150 HD
BRANCH  55  59
ATOM     59  CA  LEU A   2      45.829  15.306  74.826  0.00  0.00    +0.149 C 
BRANCH  59  61
ATOM     60  C   LEU A   1      43.630  16.383  74.889  0.00  0.00    +0.238 C 
ATOM     61  N   LEU A   2      44.376  15.294  75.065  0.00  0.00    -0.297 N 
ATOM     62  H   LEU A   2      43.921  14.413  75.379  0.00  0.00    +0.150 HD
ATOM     63  O   LEU A   1      44.105  17.470  74.602  0.00  0.00    -0.274 OA
BRANCH  60  64
ATOM     64  CA  LEU A   1      42.139  16.263  75.112  0.00  0.00    +0.145 C 
BRANCH  64  65
ATOM     65  N   LEU A   1      41.673  17.328  75.959  0.00  0.00    -0.238 NA
ATOM     66  H   LEU A   1      41.484  18.261  75.540  0.00  0.00    +0.142 HD
ENDBRANCH  64  65
BRANCH  64  67
ATOM     67  CB  LEU A   1      41.412  16.417  73.790  0.00  0.00    +0.026 C 
BRANCH  67  68
ATOM     68  CG  LEU A   1      41.573  15.448  72.656  0.00  0.00    +0.002 C 
ATOM     69  CD2 LEU A   1      40.614  14.313  72.887  0.00  0.00    +0.000 C 
ATOM     70  CD1 LEU A   1      41.186  16.195  71.411  0.00  0.00    +0.000 C 
ENDBRANCH  67  68
ENDBRANCH  64  67
ENDBRANCH  60  64
ENDBRANCH  59  61
BRANCH  59  71
ATOM     71  CB  LEU A   2      46.492  14.087  75.432  0.00  0.00    +0.029 C 
BRANCH  71  72
ATOM     72  CG  LEU A   2      46.837  14.183  76.917  0.00  0.00    +0.002 C 
ATOM     73  CD2 LEU A   2      46.156  15.333  77.594  0.00  0.00    +0.000 C 
ATOM     74  CD1 LEU A   2      46.435  12.908  77.571  0.00  0.00    +0.000 C 
ENDBRANCH  71  72
ENDBRANCH  59  71
ENDBRANCH  55  59
ENDBRANCH  54  57
BRANCH  54  75
ATOM     75  CB  ASP A   3      45.585  17.618  70.908  0.00  0.00    +0.143 C 
BRANCH  75  76
ATOM     76  CG  ASP A   3      45.319  17.749  69.396  0.00  0.00    +0.367 C 
ATOM     77  OD2 ASP A   3      44.595  18.688  69.022  0.00  0.00    -0.246 OA
ATOM     78  OD1 ASP A   3      45.834  16.944  68.587  0.00  0.00    -0.246 OA
ENDBRANCH  75  76
ENDBRANCH  54  75
ENDBRANCH  50  54
ENDBRANCH  49  52
BRANCH  49  79
ATOM     79  CB  THR A   4      50.473  14.302  69.239  0.00  0.00    +0.137 C 
ATOM     80  CG2 THR A   4      50.675  13.578  70.561  0.00  0.00    +0.034 C 
BRANCH  79  81
ATOM     81  OG1 THR A   4      49.612  13.511  68.420  0.00  0.00    -0.382 OA
ATOM     82  HG1 THR A   4      49.475  13.966  67.552  0.00  0.00    +0.210 HD
ENDBRANCH  79  81
ENDBRANCH  49  79
ENDBRANCH  45  49
ENDBRANCH  44  47
ENDBRANCH   1  44
TORSDOF 35
REMARK  Name = ../refined-set-2016/1a9m/1a9m_pocket.pdb
REMARK  211 active torsions:
REMARK  status: ('A' for Active; 'I' for Inactive)
REMARK    1  A    between atoms: _1  and  _3
REMARK    2  A    between atoms: _3  and  _4
REMARK    3  A    between atoms: _3  and  _6
REMARK    4  A    between atoms: _6  and  _7
REMARK    5  A    between atoms: _7  and  _8
REMARK    6  A    between atoms: _8  and  _9
REMARK    7  A    between atoms: _18  and  _20
REMARK    8  A    between atoms: _20  and  _21
REMARK    9  A    between atoms: _20  and  _23
REMARK   10  A    between atoms: _23  and  _24
REMARK   11  A    between atoms: _27  and  _29
REMARK   12  A    between atoms: _29  and  _30
REMARK   13  A    between atoms: _29  and  _32
REMARK   14  A    between atoms: _32  and  _33
REMARK   15  A    between atoms: _36  and  _38
REMARK   16  A    between atoms: _38  and  _39
REMARK   17  A    between atoms: _38  and  _41
REMARK   18  A    between atoms: _41  and  _42
REMARK   19  A    between atoms: _45  and  _47
REMARK   20  A    between atoms: _47  and  _48
REMARK   21  A    between atoms: _47  and  _50
REMARK   22  A    between atoms: _50  and  _51
REMARK   23  A    between atoms: _54  and  _56
REMARK   24  A    between atoms: _56  and  _57
REMARK   25  A    between atoms: _56  and  _59
REMARK   26  A    between atoms: _59  and  _60
REMARK   27  A    between atoms: _63  and  _65
REMARK   28  A    between atoms: _65  and  _66
REMARK   29  A    between atoms: _68  and  _70
REMARK   30  A    between atoms: _70  and  _71
REMARK   31  A    between atoms: _74  and  _76
REMARK   32  A    between atoms: _76  and  _77
REMARK   33  A    between atoms: _76  and  _79
REMARK   34  A    between atoms: _79  and  _80
REMARK   35  A    between atoms: _83  and  _85
REMARK   36  A    between atoms: _85  and  _86
REMARK   37  A    between atoms: _85  and  _88
REMARK   38  A    between atoms: _88  and  _89
REMARK   39  A    between atoms: _92  and  _94
REMARK   40  A    between atoms: _94  and  _95
REMARK   41  A    between atoms: _94  and  _97
REMARK   42  A    between atoms: _97  and  _98
REMARK   43  A    between atoms: _101  and  _103
REMARK   44  A    between atoms: _103  and  _104
REMARK   45  A    between atoms: _103  and  _106
REMARK   46  A    between atoms: _109  and  _111
REMARK   47  A    between atoms: _111  and  _112
REMARK   48  A    between atoms: _111  and  _114
REMARK   49  A    between atoms: _114  and  _115
REMARK   50  A    between atoms: _118  and  _120
REMARK   51  A    between atoms: _120  and  _121
REMARK   52  A    between atoms: _120  and  _123
REMARK   53  A    between atoms: _123  and  _124
REMARK   54  A    between atoms: _129  and  _131
REMARK   55  A    between atoms: _131  and  _132
REMARK   56  A    between atoms: _134  and  _136
REMARK   57  A    between atoms: _136  and  _137
REMARK   58  A    between atoms: _136  and  _139
REMARK   59  A    between atoms: _139  and  _140
REMARK   60  A    between atoms: _143  and  _145
REMARK   61  A    between atoms: _145  and  _146
REMARK   62  A    between atoms: _148  and  _150
REMARK   63  A    between atoms: _150  and  _151
REMARK   64  A    between atoms: _153  and  _155
REMARK   65  A    between atoms: _155  and  _156
REMARK   66  A    between atoms: _155  and  _158
REMARK   67  A    between atoms: _158  and  _159
REMARK   68  A    between atoms: _163  and  _164
REMARK   69  A    between atoms: _169  and  _171
REMARK   70  A    between atoms: _171  and  _172
REMARK   71  A    between atoms: _171  and  _174
REMARK   72  A    between atoms: _174  and  _175
REMARK   73  A    between atoms: _179  and  _180
REMARK   74  A    between atoms: _185  and  _187
REMARK   75  A    between atoms: _187  and  _188
REMARK   76  A    between atoms: _187  and  _190
REMARK   77  A    between atoms: _193  and  _195
REMARK   78  A    between atoms: _195  and  _196
REMARK   79  A    between atoms: _195  and  _198
REMARK   80  A    between atoms: _198  and  _199
REMARK   81  A    between atoms: _204  and  _206
REMARK   82  A    between atoms: _206  and  _207
REMARK   83  A    between atoms: _206  and  _209
REMARK   84  A    between atoms: _209  and  _210
REMARK   85  A    between atoms: _213  and  _215
REMARK   86  A    between atoms: _215  and  _216
REMARK   87  A    between atoms: _218  and  _220
REMARK   88  A    between atoms: _220  and  _221
REMARK   89  A    between atoms: _220  and  _223
REMARK   90  A    between atoms: _223  and  _224
REMARK   91  A    between atoms: _224  and  _225
REMARK   92  A    between atoms: _225  and  _226
REMARK   93  A    between atoms: _235  and  _237
REMARK   94  A    between atoms: _237  and  _238
REMARK   95  A    between atoms: _237  and  _240
REMARK   96  A    between atoms: _240  and  _241
REMARK   97  A    between atoms: _241  and  _242
REMARK   98  A    between atoms: _242  and  _243
REMARK   99  A    between atoms: _252  and  _254
REMARK  100  A    between atoms: _254  and  _255
REMARK  101  A    between atoms: _254  and  _257
REMARK  102  A    between atoms: _257  and  _258
REMARK  103  A    between atoms: _261  and  _263
REMARK  104  A    between atoms: _263  and  _264
REMARK  105  A    between atoms: _263  and  _266
REMARK  106  A    between atoms: _266  and  _267
REMARK  107  A    between atoms: _270  and  _272
REMARK  108  A    between atoms: _272  and  _273
REMARK  109  A    between atoms: _272  and  _275
REMARK  110  A    between atoms: _275  and  _276
REMARK  111  A    between atoms: _279  and  _281
REMARK  112  A    between atoms: _281  and  _282
REMARK  113  A    between atoms: _281  and  _284
REMARK  114  A    between atoms: _284  and  _285
REMARK  115  A    between atoms: _288  and  _290
REMARK  116  A    between atoms: _290  and  _291
REMARK  117  A    between atoms: _293  and  _295
REMARK  118  A    between atoms: _295  and  _296
REMARK  119  A    between atoms: _299  and  _301
REMARK  120  A    between atoms: _301  and  _302
REMARK  121  A    between atoms: _301  and  _304
REMARK  122  A    between atoms: _304  and  _305
REMARK  123  A    between atoms: _308  and  _310
REMARK  124  A    between atoms: _310  and  _311
REMARK  125  A    between atoms: _310  and  _313
REMARK  126  A    between atoms: _313  and  _314
REMARK  127  A    between atoms: _317  and  _319
REMARK  128  A    between atoms: _319  and  _320
REMARK  129  A    between atoms: _319  and  _322
REMARK  130  A    between atoms: _322  and  _323
REMARK  131  A    between atoms: _326  and  _328
REMARK  132  A    between atoms: _328  and  _329
REMARK  133  A    between atoms: _328  and  _331
REMARK  134  A    between atoms: _334  and  _336
REMARK  135  A    between atoms: _336  and  _337
REMARK  136  A    between atoms: _336  and  _339
REMARK  137  A    between atoms: _339  and  _340
REMARK  138  A    between atoms: _340  and  _341
REMARK  139  A    between atoms: _341  and  _342
REMARK  140  A    between atoms: _342  and  _343
REMARK  141  A    between atoms: _347  and  _349
REMARK  142  A    between atoms: _349  and  _350
REMARK  143  A    between atoms: _349  and  _352
REMARK  144  A    between atoms: _352  and  _353
REMARK  145  A    between atoms: _353  and  _354
REMARK  146  A    between atoms: _356  and  _358
REMARK  147  A    between atoms: _358  and  _359
REMARK  148  A    between atoms: _358  and  _361
REMARK  149  A    between atoms: _361  and  _362
REMARK  150  A    between atoms: _365  and  _367
REMARK  151  A    between atoms: _367  and  _368
REMARK  152  A    between atoms: _367  and  _370
REMARK  153  A    between atoms: _370  and  _371
REMARK  154  A    between atoms: _376  and  _378
REMARK  155  A    between atoms: _378  and  _379
REMARK  156  A    between atoms: _381  and  _383
REMARK  157  A    between atoms: _383  and  _384
REMARK  158  A    between atoms: _383  and  _386
REMARK  159  A    between atoms: _386  and  _387
REMARK  160  A    between atoms: _390  and  _392
REMARK  161  A    between atoms: _392  and  _393
REMARK  162  A    between atoms: _395  and  _397
REMARK  163  A    between atoms: _397  and  _398
REMARK  164  A    between atoms: _400  and  _402
REMARK  165  A    between atoms: _402  and  _403
REMARK  166  A    between atoms: _402  and  _405
REMARK  167  A    between atoms: _405  and  _406
REMARK  168  A    between atoms: _412  and  _414
REMARK  169  A    between atoms: _414  and  _415
REMARK  170  A    between atoms: _414  and  _417
REMARK  171  A    between atoms: _417  and  _418
REMARK  172  A    between atoms: _421  and  _423
REMARK  173  A    between atoms: _423  and  _424
REMARK  174  A    between atoms: _423  and  _426
REMARK  175  A    between atoms: _429  and  _431
REMARK  176  A    between atoms: _431  and  _432
REMARK  177  A    between atoms: _431  and  _434
REMARK  178  A    between atoms: _434  and  _435
REMARK  179  A    between atoms: _439  and  _440
REMARK  180  A    between atoms: _445  and  _447
REMARK  181  A    between atoms: _447  and  _448
REMARK  182  A    between atoms: _447  and  _450
REMARK  183  A    between atoms: _450  and  _451
REMARK  184  A    between atoms: _455  and  _456
REMARK  185  A    between atoms: _461  and  _463
REMARK  186  A    between atoms: _463  and  _464
REMARK  187  A    between atoms: _463  and  _466
REMARK  188  A    between atoms: _469  and  _471
REMARK  189  A    between atoms: _471  and  _472
REMARK  190  A    between atoms: _471  and  _474
REMARK  191  A    between atoms: _474  and  _475
REMARK  192  A    between atoms: _480  and  _482
REMARK  193  A    between atoms: _482  and  _483
REMARK  194  A    between atoms: _482  and  _485
REMARK  195  A    between atoms: _485  and  _486
REMARK  196  A    between atoms: _489  and  _491
REMARK  197  A    between atoms: _491  and  _492
REMARK  198  A    between atoms: _491  and  _494
REMARK  199  A    between atoms: _494  and  _495
REMARK  200  A    between atoms: _498  and  _500
REMARK  201  A    between atoms: _500  and  _501
REMARK  202  A    between atoms: _503  and  _505
REMARK  203  A    between atoms: _505  and  _506
REMARK  204  A    between atoms: _505  and  _508
REMARK  205  A    between atoms: _508  and  _509
REMARK  206  A    between atoms: _509  and  _510
REMARK  207  A    between atoms: _510  and  _511
REMARK  208  A    between atoms: _520  and  _522
REMARK  209  A    between atoms: _522  and  _523
REMARK  210  A    between atoms: _522  and  _525
REMARK  211  A    between atoms: _525  and  _526
REMARK                            x       y       z     vdW  Elec       q    Type
REMARK                         _______ _______ _______ _____ _____    ______ ____
ROOT
ATOM      1  C   HIS A   2      44.852  26.294  62.593  0.00  0.00    +0.241 C 
ATOM      2  O   HIS A   2      45.605  25.534  63.207  0.00  0.00    -0.273 OA
ATOM      3  N   GLY A   3      43.599  25.998  62.295  0.00  0.00    -0.295 N 
ATOM      4  H   GLY A   3      42.989  26.726  61.872  0.00  0.00    +0.150 HD
ENDROOT
BRANCH   3   5
ATOM      5  CA  GLY A   3      43.062  24.684  62.546  0.00  0.00    +0.176 C 
BRANCH   5   6
ATOM      6  C   GLY A   3      42.692  24.089  61.201  0.00  0.00    +0.243 C 
ATOM      7  N   ILE A   4      41.964  22.980  61.245  0.00  0.00    -0.297 N 
ATOM      8  H   ILE A   4      41.691  22.586  62.168  0.00  0.00    +0.150 HD
ATOM      9  O   GLY A   3      43.031  24.640  60.136  0.00  0.00    -0.273 OA
BRANCH   7  10
ATOM     10  CA  ILE A   4      41.545  22.313  60.041  0.00  0.00    +0.149 C 
BRANCH  10  11
ATOM     11  C   ILE A   4      40.501  23.120  59.277  0.00  0.00    +0.241 C 
ATOM     12  N   GLY A   5      39.542  23.703  59.990  0.00  0.00    -0.295 N 
ATOM     13  H   GLY A   5      39.538  23.609  61.026  0.00  0.00    +0.150 HD
ATOM     14  O   ILE A   4      40.596  23.247  58.063  0.00  0.00    -0.273 OA
BRANCH  12  15
ATOM     15  CA  GLY A   5      38.503  24.468  59.331  0.00  0.00    +0.176 C 
BRANCH  15  16
ATOM     16  C   GLY A   5      38.862  25.896  58.980  0.00  0.00    +0.243 C 
ATOM     17  N   GLY A   6      40.058  26.340  59.359  0.00  0.00    -0.296 N 
ATOM     18  H   GLY A   6      40.705  25.700  59.863  0.00  0.00    +0.150 HD
ATOM     19  O   GLY A   5      38.047  26.599  58.397  0.00  0.00    -0.273 OA
BRANCH  17  20
ATOM     20  CA  GLY A   6      40.476  27.708  59.080  0.00  0.00    +0.163 C 
BRANCH  20  21
ATOM     21  C   GLY A   6      41.247  28.362  60.223  0.00  0.00    +0.229 C 
ATOM     22  O   GLY A   6      41.812  27.660  61.065  0.00  0.00    -0.286 OA
ENDBRANCH  20  21
ENDBRANCH  17  20
ENDBRANCH  15  16
ENDBRANCH  12  15
ENDBRANCH  10  11
BRANCH  10  23
ATOM     23  CB  ILE A   4      41.043  20.886  60.347  0.00  0.00    +0.027 C 
ATOM     24  CG2 ILE A   4      39.538  20.855  60.565  0.00  0.00    +0.002 C 
BRANCH  23  25
ATOM     25  CG1 ILE A   4      41.405  19.964  59.194  0.00  0.00    +0.002 C 
ATOM     26  CD1 ILE A   4      41.131  18.548  59.510  0.00  0.00    +0.000 C 
ENDBRANCH  23  25
ENDBRANCH  10  23
ENDBRANCH   7  10
ENDBRANCH   5   6
ENDBRANCH   3   5
BRANCH   1  27
ATOM     27  CA  HIS A   2      45.274  27.708  62.231  0.00  0.00    +0.155 C 
BRANCH  27  30
ATOM     28  C   ILE A   1      45.231  29.439  63.893  0.00  0.00    +0.238 C 
ATOM     29  O   ILE A   1      44.192  29.930  63.443  0.00  0.00    -0.274 OA
ATOM     30  N   HIS A   2      45.816  28.377  63.377  0.00  0.00    -0.297 N 
ATOM     31  H   HIS A   2      46.690  28.016  63.811  0.00  0.00    +0.150 HD
BRANCH  28  32
ATOM     32  CA  ILE A   1      45.948  30.035  65.076  0.00  0.00    +0.145 C 
BRANCH  32  33
ATOM     33  CB  ILE A   1      45.703  29.182  66.355  0.00  0.00    +0.025 C 
ATOM     34  CG2 ILE A   1      46.641  29.628  67.490  0.00  0.00    +0.002 C 
BRANCH  33  35
ATOM     35  CG1 ILE A   1      44.242  29.198  66.759  0.00  0.00    +0.002 C 
ATOM     36  CD1 ILE A   1      43.967  28.323  67.946  0.00  0.00    +0.000 C 
ENDBRANCH  33  35
ENDBRANCH  32  33
BRANCH  32  37
ATOM     37  N   ILE A   1      45.576  31.424  65.210  0.00  0.00    -0.238 NA
ATOM     38  H   ILE A   1      44.582  31.682  65.377  0.00  0.00    +0.142 HD
ENDBRANCH  32  37
ENDBRANCH  28  32
ENDBRANCH  27  30
BRANCH  27  39
ATOM     39  CB  HIS A   2      46.324  27.702  61.136  0.00  0.00    +0.076 C 
BRANCH  39  40
ATOM     40  CG  HIS A   2      45.830  27.206  59.821  0.00  0.00    +0.082 A 
ATOM     41  CD2 HIS A   2      44.576  27.046  59.340  0.00  0.00    +0.115 A 
ATOM     42  NE2 HIS A   2      44.694  26.598  58.048  0.00  0.00    -0.221 NA
ATOM     43  CE1 HIS A   2      45.976  26.487  57.747  0.00  0.00    +0.199 A 
ATOM     44  ND1 HIS A   2      46.684  26.842  58.803  0.00  0.00    -0.227 NA
ENDBRANCH  39  40
ENDBRANCH  27  39
ENDBRANCH   1  27
TORSDOF 18
REMARK  Name = ../refined-set-2016/1a9m/1a9m_pocket.pdb
REMARK  211 active torsions:
REMARK  status: ('A' for Active; 'I' for Inactive)
REMARK    1  A    between atoms: _1  and  _3
REMARK    2  A    between atoms: _3  and  _4
REMARK    3  A    between atoms: _3  and  _6
REMARK    4  A    between atoms: _6  and  _7
REMARK    5  A    between atoms: _7  and  _8
REMARK    6  A    between atoms: _8  and  _9
REMARK    7  A    between atoms: _18  and  _20
REMARK    8  A    between atoms: _20  and  _21
REMARK    9  A    between atoms: _20  and  _23
REMARK   10  A    between atoms: _23  and  _24
REMARK   11  A    between atoms: _27  and  _29
REMARK   12  A    between atoms: _29  and  _30
REMARK   13  A    between atoms: _29  and  _32
REMARK   14  A    between atoms: _32  and  _33
REMARK   15  A    between atoms: _36  and  _38
REMARK   16  A    between atoms: _38  and  _39
REMARK   17  A    between atoms: _38  and  _41
REMARK   18  A    between atoms: _41  and  _42
REMARK   19  A    between atoms: _45  and  _47
REMARK   20  A    between atoms: _47  and  _48
REMARK   21  A    between atoms: _47  and  _50
REMARK   22  A    between atoms: _50  and  _51
REMARK   23  A    between atoms: _54  and  _56
REMARK   24  A    between atoms: _56  and  _57
REMARK   25  A    between atoms: _56  and  _59
REMARK   26  A    between atoms: _59  and  _60
REMARK   27  A    between atoms: _63  and  _65
REMARK   28  A    between atoms: _65  and  _66
REMARK   29  A    between atoms: _68  and  _70
REMARK   30  A    between atoms: _70  and  _71
REMARK   31  A    between atoms: _74  and  _76
REMARK   32  A    between atoms: _76  and  _77
REMARK   33  A    between atoms: _76  and  _79
REMARK   34  A    between atoms: _79  and  _80
REMARK   35  A    between atoms: _83  and  _85
REMARK   36  A    between atoms: _85  and  _86
REMARK   37  A    between atoms: _85  and  _88
REMARK   38  A    between atoms: _88  and  _89
REMARK   39  A    between atoms: _92  and  _94
REMARK   40  A    between atoms: _94  and  _95
REMARK   41  A    between atoms: _94  and  _97
REMARK   42  A    between atoms: _97  and  _98
REMARK   43  A    between atoms: _101  and  _103
REMARK   44  A    between atoms: _103  and  _104
REMARK   45  A    between atoms: _103  and  _106
REMARK   46  A    between atoms: _109  and  _111
REMARK   47  A    between atoms: _111  and  _112
REMARK   48  A    between atoms: _111  and  _114
REMARK   49  A    between atoms: _114  and  _115
REMARK   50  A    between atoms: _118  and  _120
REMARK   51  A    between atoms: _120  and  _121
REMARK   52  A    between atoms: _120  and  _123
REMARK   53  A    between atoms: _123  and  _124
REMARK   54  A    between atoms: _129  and  _131
REMARK   55  A    between atoms: _131  and  _132
REMARK   56  A    between atoms: _134  and  _136
REMARK   57  A    between atoms: _136  and  _137
REMARK   58  A    between atoms: _136  and  _139
REMARK   59  A    between atoms: _139  and  _140
REMARK   60  A    between atoms: _143  and  _145
REMARK   61  A    between atoms: _145  and  _146
REMARK   62  A    between atoms: _148  and  _150
REMARK   63  A    between atoms: _150  and  _151
REMARK   64  A    between atoms: _153  and  _155
REMARK   65  A    between atoms: _155  and  _156
REMARK   66  A    between atoms: _155  and  _158
REMARK   67  A    between atoms: _158  and  _159
REMARK   68  A    between atoms: _163  and  _164
REMARK   69  A    between atoms: _169  and  _171
REMARK   70  A    between atoms: _171  and  _172
REMARK   71  A    between atoms: _171  and  _174
REMARK   72  A    between atoms: _174  and  _175
REMARK   73  A    between atoms: _179  and  _180
REMARK   74  A    between atoms: _185  and  _187
REMARK   75  A    between atoms: _187  and  _188
REMARK   76  A    between atoms: _187  and  _190
REMARK   77  A    between atoms: _193  and  _195
REMARK   78  A    between atoms: _195  and  _196
REMARK   79  A    between atoms: _195  and  _198
REMARK   80  A    between atoms: _198  and  _199
REMARK   81  A    between atoms: _204  and  _206
REMARK   82  A    between atoms: _206  and  _207
REMARK   83  A    between atoms: _206  and  _209
REMARK   84  A    between atoms: _209  and  _210
REMARK   85  A    between atoms: _213  and  _215
REMARK   86  A    between atoms: _215  and  _216
REMARK   87  A    between atoms: _218  and  _220
REMARK   88  A    between atoms: _220  and  _221
REMARK   89  A    between atoms: _220  and  _223
REMARK   90  A    between atoms: _223  and  _224
REMARK   91  A    between atoms: _224  and  _225
REMARK   92  A    between atoms: _225  and  _226
REMARK   93  A    between atoms: _235  and  _237
REMARK   94  A    between atoms: _237  and  _238
REMARK   95  A    between atoms: _237  and  _240
REMARK   96  A    between atoms: _240  and  _241
REMARK   97  A    between atoms: _241  and  _242
REMARK   98  A    between atoms: _242  and  _243
REMARK   99  A    between atoms: _252  and  _254
REMARK  100  A    between atoms: _254  and  _255
REMARK  101  A    between atoms: _254  and  _257
REMARK  102  A    between atoms: _257  and  _258
REMARK  103  A    between atoms: _261  and  _263
REMARK  104  A    between atoms: _263  and  _264
REMARK  105  A    between atoms: _263  and  _266
REMARK  106  A    between atoms: _266  and  _267
REMARK  107  A    between atoms: _270  and  _272
REMARK  108  A    between atoms: _272  and  _273
REMARK  109  A    between atoms: _272  and  _275
REMARK  110  A    between atoms: _275  and  _276
REMARK  111  A    between atoms: _279  and  _281
REMARK  112  A    between atoms: _281  and  _282
REMARK  113  A    between atoms: _281  and  _284
REMARK  114  A    between atoms: _284  and  _285
REMARK  115  A    between atoms: _288  and  _290
REMARK  116  A    between atoms: _290  and  _291
REMARK  117  A    between atoms: _293  and  _295
REMARK  118  A    between atoms: _295  and  _296
REMARK  119  A    between atoms: _299  and  _301
REMARK  120  A    between atoms: _301  and  _302
REMARK  121  A    between atoms: _301  and  _304
REMARK  122  A    between atoms: _304  and  _305
REMARK  123  A    between atoms: _308  and  _310
REMARK  124  A    between atoms: _310  and  _311
REMARK  125  A    between atoms: _310  and  _313
REMARK  126  A    between atoms: _313  and  _314
REMARK  127  A    between atoms: _317  and  _319
REMARK  128  A    between atoms: _319  and  _320
REMARK  129  A    between atoms: _319  and  _322
REMARK  130  A    between atoms: _322  and  _323
REMARK  131  A    between atoms: _326  and  _328
REMARK  132  A    between atoms: _328  and  _329
REMARK  133  A    between atoms: _328  and  _331
REMARK  134  A    between atoms: _334  and  _336
REMARK  135  A    between atoms: _336  and  _337
REMARK  136  A    between atoms: _336  and  _339
REMARK  137  A    between atoms: _339  and  _340
REMARK  138  A    between atoms: _340  and  _341
REMARK  139  A    between atoms: _341  and  _342
REMARK  140  A    between atoms: _342  and  _343
REMARK  141  A    between atoms: _347  and  _349
REMARK  142  A    between atoms: _349  and  _350
REMARK  143  A    between atoms: _349  and  _352
REMARK  144  A    between atoms: _352  and  _353
REMARK  145  A    between atoms: _353  and  _354
REMARK  146  A    between atoms: _356  and  _358
REMARK  147  A    between atoms: _358  and  _359
REMARK  148  A    between atoms: _358  and  _361
REMARK  149  A    between atoms: _361  and  _362
REMARK  150  A    between atoms: _365  and  _367
REMARK  151  A    between atoms: _367  and  _368
REMARK  152  A    between atoms: _367  and  _370
REMARK  153  A    between atoms: _370  and  _371
REMARK  154  A    between atoms: _376  and  _378
REMARK  155  A    between atoms: _378  and  _379
REMARK  156  A    between atoms: _381  and  _383
REMARK  157  A    between atoms: _383  and  _384
REMARK  158  A    between atoms: _383  and  _386
REMARK  159  A    between atoms: _386  and  _387
REMARK  160  A    between atoms: _390  and  _392
REMARK  161  A    between atoms: _392  and  _393
REMARK  162  A    between atoms: _395  and  _397
REMARK  163  A    between atoms: _397  and  _398
REMARK  164  A    between atoms: _400  and  _402
REMARK  165  A    between atoms: _402  and  _403
REMARK  166  A    between atoms: _402  and  _405
REMARK  167  A    between atoms: _405  and  _406
REMARK  168  A    between atoms: _412  and  _414
REMARK  169  A    between atoms: _414  and  _415
REMARK  170  A    between atoms: _414  and  _417
REMARK  171  A    between atoms: _417  and  _418
REMARK  172  A    between atoms: _421  and  _423
REMARK  173  A    between atoms: _423  and  _424
REMARK  174  A    between atoms: _423  and  _426
REMARK  175  A    between atoms: _429  and  _431
REMARK  176  A    between atoms: _431  and  _432
REMARK  177  A    between atoms: _431  and  _434
REMARK  178  A    between atoms: _434  and  _435
REMARK  179  A    between atoms: _439  and  _440
REMARK  180  A    between atoms: _445  and  _447
REMARK  181  A    between atoms: _447  and  _448
REMARK  182  A    between atoms: _447  and  _450
REMARK  183  A    between atoms: _450  and  _451
REMARK  184  A    between atoms: _455  and  _456
REMARK  185  A    between atoms: _461  and  _463
REMARK  186  A    between atoms: _463  and  _464
REMARK  187  A    between atoms: _463  and  _466
REMARK  188  A    between atoms: _469  and  _471
REMARK  189  A    between atoms: _471  and  _472
REMARK  190  A    between atoms: _471  and  _474
REMARK  191  A    between atoms: _474  and  _475
REMARK  192  A    between atoms: _480  and  _482
REMARK  193  A    between atoms: _482  and  _483
REMARK  194  A    between atoms: _482  and  _485
REMARK  195  A    between atoms: _485  and  _486
REMARK  196  A    between atoms: _489  and  _491
REMARK  197  A    between atoms: _491  and  _492
REMARK  198  A    between atoms: _491  and  _494
REMARK  199  A    between atoms: _494  and  _495
REMARK  200  A    between atoms: _498  and  _500
REMARK  201  A    between atoms: _500  and  _501
REMARK  202  A    between atoms: _503  and  _505
REMARK  203  A    between atoms: _505  and  _506
REMARK  204  A    between atoms: _505  and  _508
REMARK  205  A    between atoms: _508  and  _509
REMARK  206  A    between atoms: _509  and  _510
REMARK  207  A    between atoms: _510  and  _511
REMARK  208  A    between atoms: _520  and  _522
REMARK  209  A    between atoms: _522  and  _523
REMARK  210  A    between atoms: _522  and  _525
REMARK  211  A    between atoms: _525  and  _526
REMARK                            x       y       z     vdW  Elec       q    Type
REMARK                         _______ _______ _______ _____ _____    ______ ____
ROOT
ATOM      1  CA  ILE A   1      40.848  31.752  64.673  0.00  0.00    +0.133 C 
ENDROOT
BRANCH   1   2
ATOM      2  N   ILE A   1      41.602  31.144  63.588  0.00  0.00    -0.239 NA
ATOM      3  H   ILE A   1      42.571  30.807  63.761  0.00  0.00    +0.142 HD
ENDBRANCH   1   2
BRANCH   1   4
ATOM      4  CB  ILE A   1      40.086  30.741  65.642  0.00  0.00    +0.023 C 
ATOM      5  CG2 ILE A   1      38.977  29.979  64.899  0.00  0.00    +0.002 C 
BRANCH   4   6
ATOM      6  CG1 ILE A   1      41.048  29.836  66.404  0.00  0.00    +0.002 C 
ATOM      7  CD1 ILE A   1      40.411  29.190  67.623  0.00  0.00    +0.000 C 
ENDBRANCH   4   6
ENDBRANCH   1   4
BRANCH   1   8
ATOM      8  C   ILE A   1      41.762  32.676  65.468  0.00  0.00    +0.224 C 
ATOM      9  O   ILE A   1      42.968  32.485  65.505  0.00  0.00    -0.287 OA
ENDBRANCH   1   8
TORSDOF 4
REMARK  Name = ../refined-set-2016/1a9m/1a9m_pocket.pdb
REMARK  211 active torsions:
REMARK  status: ('A' for Active; 'I' for Inactive)
REMARK    1  A    between atoms: _1  and  _3
REMARK    2  A    between atoms: _3  and  _4
REMARK    3  A    between atoms: _3  and  _6
REMARK    4  A    between atoms: _6  and  _7
REMARK    5  A    between atoms: _7  and  _8
REMARK    6  A    between atoms: _8  and  _9
REMARK    7  A    between atoms: _18  and  _20
REMARK    8  A    between atoms: _20  and  _21
REMARK    9  A    between atoms: _20  and  _23
REMARK   10  A    between atoms: _23  and  _24
REMARK   11  A    between atoms: _27  and  _29
REMARK   12  A    between atoms: _29  and  _30
REMARK   13  A    between atoms: _29  and  _32
REMARK   14  A    between atoms: _32  and  _33
REMARK   15  A    between atoms: _36  and  _38
REMARK   16  A    between atoms: _38  and  _39
REMARK   17  A    between atoms: _38  and  _41
REMARK   18  A    between atoms: _41  and  _42
REMARK   19  A    between atoms: _45  and  _47
REMARK   20  A    between atoms: _47  and  _48
REMARK   21  A    between atoms: _47  and  _50
REMARK   22  A    between atoms: _50  and  _51
REMARK   23  A    between atoms: _54  and  _56
REMARK   24  A    between atoms: _56  and  _57
REMARK   25  A    between atoms: _56  and  _59
REMARK   26  A    between atoms: _59  and  _60
REMARK   27  A    between atoms: _63  and  _65
REMARK   28  A    between atoms: _65  and  _66
REMARK   29  A    between atoms: _68  and  _70
REMARK   30  A    between atoms: _70  and  _71
REMARK   31  A    between atoms: _74  and  _76
REMARK   32  A    between atoms: _76  and  _77
REMARK   33  A    between atoms: _76  and  _79
REMARK   34  A    between atoms: _79  and  _80
REMARK   35  A    between atoms: _83  and  _85
REMARK   36  A    between atoms: _85  and  _86
REMARK   37  A    between atoms: _85  and  _88
REMARK   38  A    between atoms: _88  and  _89
REMARK   39  A    between atoms: _92  and  _94
REMARK   40  A    between atoms: _94  and  _95
REMARK   41  A    between atoms: _94  and  _97
REMARK   42  A    between atoms: _97  and  _98
REMARK   43  A    between atoms: _101  and  _103
REMARK   44  A    between atoms: _103  and  _104
REMARK   45  A    between atoms: _103  and  _106
REMARK   46  A    between atoms: _109  and  _111
REMARK   47  A    between atoms: _111  and  _112
REMARK   48  A    between atoms: _111  and  _114
REMARK   49  A    between atoms: _114  and  _115
REMARK   50  A    between atoms: _118  and  _120
REMARK   51  A    between atoms: _120  and  _121
REMARK   52  A    between atoms: _120  and  _123
REMARK   53  A    between atoms: _123  and  _124
REMARK   54  A    between atoms: _129  and  _131
REMARK   55  A    between atoms: _131  and  _132
REMARK   56  A    between atoms: _134  and  _136
REMARK   57  A    between atoms: _136  and  _137
REMARK   58  A    between atoms: _136  and  _139
REMARK   59  A    between atoms: _139  and  _140
REMARK   60  A    between atoms: _143  and  _145
REMARK   61  A    between atoms: _145  and  _146
REMARK   62  A    between atoms: _148  and  _150
REMARK   63  A    between atoms: _150  and  _151
REMARK   64  A    between atoms: _153  and  _155
REMARK   65  A    between atoms: _155  and  _156
REMARK   66  A    between atoms: _155  and  _158
REMARK   67  A    between atoms: _158  and  _159
REMARK   68  A    between atoms: _163  and  _164
REMARK   69  A    between atoms: _169  and  _171
REMARK   70  A    between atoms: _171  and  _172
REMARK   71  A    between atoms: _171  and  _174
REMARK   72  A    between atoms: _174  and  _175
REMARK   73  A    between atoms: _179  and  _180
REMARK   74  A    between atoms: _185  and  _187
REMARK   75  A    between atoms: _187  and  _188
REMARK   76  A    between atoms: _187  and  _190
REMARK   77  A    between atoms: _193  and  _195
REMARK   78  A    between atoms: _195  and  _196
REMARK   79  A    between atoms: _195  and  _198
REMARK   80  A    between atoms: _198  and  _199
REMARK   81  A    between atoms: _204  and  _206
REMARK   82  A    between atoms: _206  and  _207
REMARK   83  A    between atoms: _206  and  _209
REMARK   84  A    between atoms: _209  and  _210
REMARK   85  A    between atoms: _213  and  _215
REMARK   86  A    between atoms: _215  and  _216
REMARK   87  A    between atoms: _218  and  _220
REMARK   88  A    between atoms: _220  and  _221
REMARK   89  A    between atoms: _220  and  _223
REMARK   90  A    between atoms: _223  and  _224
REMARK   91  A    between atoms: _224  and  _225
REMARK   92  A    between atoms: _225  and  _226
REMARK   93  A    between atoms: _235  and  _237
REMARK   94  A    between atoms: _237  and  _238
REMARK   95  A    between atoms: _237  and  _240
REMARK   96  A    between atoms: _240  and  _241
REMARK   97  A    between atoms: _241  and  _242
REMARK   98  A    between atoms: _242  and  _243
REMARK   99  A    between atoms: _252  and  _254
REMARK  100  A    between atoms: _254  and  _255
REMARK  101  A    between atoms: _254  and  _257
REMARK  102  A    between atoms: _257  and  _258
REMARK  103  A    between atoms: _261  and  _263
REMARK  104  A    between atoms: _263  and  _264
REMARK  105  A    between atoms: _263  and  _266
REMARK  106  A    between atoms: _266  and  _267
REMARK  107  A    between atoms: _270  and  _272
REMARK  108  A    between atoms: _272  and  _273
REMARK  109  A    between atoms: _272  and  _275
REMARK  110  A    between atoms: _275  and  _276
REMARK  111  A    between atoms: _279  and  _281
REMARK  112  A    between atoms: _281  and  _282
REMARK  113  A    between atoms: _281  and  _284
REMARK  114  A    between atoms: _284  and  _285
REMARK  115  A    between atoms: _288  and  _290
REMARK  116  A    between atoms: _290  and  _291
REMARK  117  A    between atoms: _293  and  _295
REMARK  118  A    between atoms: _295  and  _296
REMARK  119  A    between atoms: _299  and  _301
REMARK  120  A    between atoms: _301  and  _302
REMARK  121  A    between atoms: _301  and  _304
REMARK  122  A    between atoms: _304  and  _305
REMARK  123  A    between atoms: _308  and  _310
REMARK  124  A    between atoms: _310  and  _311
REMARK  125  A    between atoms: _310  and  _313
REMARK  126  A    between atoms: _313  and  _314
REMARK  127  A    between atoms: _317  and  _319
REMARK  128  A    between atoms: _319  and  _320
REMARK  129  A    between atoms: _319  and  _322
REMARK  130  A    between atoms: _322  and  _323
REMARK  131  A    between atoms: _326  and  _328
REMARK  132  A    between atoms: _328  and  _329
REMARK  133  A    between atoms: _328  and  _331
REMARK  134  A    between atoms: _334  and  _336
REMARK  135  A    between atoms: _336  and  _337
REMARK  136  A    between atoms: _336  and  _339
REMARK  137  A    between atoms: _339  and  _340
REMARK  138  A    between atoms: _340  and  _341
REMARK  139  A    between atoms: _341  and  _342
REMARK  140  A    between atoms: _342  and  _343
REMARK  141  A    between atoms: _347  and  _349
REMARK  142  A    between atoms: _349  and  _350
REMARK  143  A    between atoms: _349  and  _352
REMARK  144  A    between atoms: _352  and  _353
REMARK  145  A    between atoms: _353  and  _354
REMARK  146  A    between atoms: _356  and  _358
REMARK  147  A    between atoms: _358  and  _359
REMARK  148  A    between atoms: _358  and  _361
REMARK  149  A    between atoms: _361  and  _362
REMARK  150  A    between atoms: _365  and  _367
REMARK  151  A    between atoms: _367  and  _368
REMARK  152  A    between atoms: _367  and  _370
REMARK  153  A    between atoms: _370  and  _371
REMARK  154  A    between atoms: _376  and  _378
REMARK  155  A    between atoms: _378  and  _379
REMARK  156  A    between atoms: _381  and  _383
REMARK  157  A    between atoms: _383  and  _384
REMARK  158  A    between atoms: _383  and  _386
REMARK  159  A    between atoms: _386  and  _387
REMARK  160  A    between atoms: _390  and  _392
REMARK  161  A    between atoms: _392  and  _393
REMARK  162  A    between atoms: _395  and  _397
REMARK  163  A    between atoms: _397  and  _398
REMARK  164  A    between atoms: _400  and  _402
REMARK  165  A    between atoms: _402  and  _403
REMARK  166  A    between atoms: _402  and  _405
REMARK  167  A    between atoms: _405  and  _406
REMARK  168  A    between atoms: _412  and  _414
REMARK  169  A    between atoms: _414  and  _415
REMARK  170  A    between atoms: _414  and  _417
REMARK  171  A    between atoms: _417  and  _418
REMARK  172  A    between atoms: _421  and  _423
REMARK  173  A    between atoms: _423  and  _424
REMARK  174  A    between atoms: _423  and  _426
REMARK  175  A    between atoms: _429  and  _431
REMARK  176  A    between atoms: _431  and  _432
REMARK  177  A    between atoms: _431  and  _434
REMARK  178  A    between atoms: _434  and  _435
REMARK  179  A    between atoms: _439  and  _440
REMARK  180  A    between atoms: _445  and  _447
REMARK  181  A    between atoms: _447  and  _448
REMARK  182  A    between atoms: _447  and  _450
REMARK  183  A    between atoms: _450  and  _451
REMARK  184  A    between atoms: _455  and  _456
REMARK  185  A    between atoms: _461  and  _463
REMARK  186  A    between atoms: _463  and  _464
REMARK  187  A    between atoms: _463  and  _466
REMARK  188  A    between atoms: _469  and  _471
REMARK  189  A    between atoms: _471  and  _472
REMARK  190  A    between atoms: _471  and  _474
REMARK  191  A    between atoms: _474  and  _475
REMARK  192  A    between atoms: _480  and  _482
REMARK  193  A    between atoms: _482  and  _483
REMARK  194  A    between atoms: _482  and  _485
REMARK  195  A    between atoms: _485  and  _486
REMARK  196  A    between atoms: _489  and  _491
REMARK  197  A    between atoms: _491  and  _492
REMARK  198  A    between atoms: _491  and  _494
REMARK  199  A    between atoms: _494  and  _495
REMARK  200  A    between atoms: _498  and  _500
REMARK  201  A    between atoms: _500  and  _501
REMARK  202  A    between atoms: _503  and  _505
REMARK  203  A    between atoms: _505  and  _506
REMARK  204  A    between atoms: _505  and  _508
REMARK  205  A    between atoms: _508  and  _509
REMARK  206  A    between atoms: _509  and  _510
REMARK  207  A    between atoms: _510  and  _511
REMARK  208  A    between atoms: _520  and  _522
REMARK  209  A    between atoms: _522  and  _523
REMARK  210  A    between atoms: _522  and  _525
REMARK  211  A    between atoms: _525  and  _526
REMARK                            x       y       z     vdW  Elec       q    Type
REMARK                         _______ _______ _______ _____ _____    ______ ____
ROOT
ATOM      1  CA  VAL A   4      37.079  21.377  73.050  0.00  0.00    +0.149 C 
ENDROOT
BRANCH   1   4
ATOM      2  C   PRO A   3      35.324  22.285  71.514  0.00  0.00    +0.241 C 
ATOM      3  O   PRO A   3      34.385  21.706  72.074  0.00  0.00    -0.273 OA
ATOM      4  N   VAL A   4      36.606  22.150  71.880  0.00  0.00    -0.297 N 
ATOM      5  H   VAL A   4      37.324  22.625  71.297  0.00  0.00    +0.150 HD
BRANCH   2   9
ATOM      6  C   THR A   2      36.421  25.133  70.679  0.00  0.00    +0.246 C 
ATOM      7  O   THR A   2      35.666  25.494  71.579  0.00  0.00    -0.273 OA
ATOM      8  N   PRO A   3      36.160  24.054  69.946  0.00  0.00    -0.272 N 
ATOM      9  CA  PRO A   3      35.065  23.132  70.257  0.00  0.00    +0.152 C 
ATOM     10  CB  PRO A   3      35.021  22.253  69.009  0.00  0.00    +0.031 C 
ATOM     11  CG  PRO A   3      35.549  23.168  67.912  0.00  0.00    +0.024 C 
ATOM     12  CD  PRO A   3      36.697  23.805  68.595  0.00  0.00    +0.094 C 
BRANCH   6  13
ATOM     13  CA  THR A   2      37.599  26.003  70.241  0.00  0.00    +0.176 C 
BRANCH  13  15
ATOM     14  C   PRO A   1      36.759  28.228  69.676  0.00  0.00    +0.239 C 
ATOM     15  N   THR A   2      37.229  27.368  70.571  0.00  0.00    -0.295 N 
ATOM     16  H   THR A   2      37.337  27.687  71.555  0.00  0.00    +0.150 HD
ATOM     17  O   PRO A   1      36.656  27.966  68.484  0.00  0.00    -0.274 OA
BRANCH  14  19
ATOM     18  N   PRO A   1      37.546  30.432  70.621  0.00  0.00    -0.210 NA
ATOM     19  CA  PRO A   1      36.390  29.607  70.224  0.00  0.00    +0.149 C 
ATOM     20  CB  PRO A   1      35.681  30.471  69.174  0.00  0.00    +0.028 C 
ATOM     21  CG  PRO A   1      36.784  31.223  68.556  0.00  0.00    +0.021 C 
ATOM     22  CD  PRO A   1      37.703  31.585  69.714  0.00  0.00    +0.089 C 
ENDBRANCH  14  19
ENDBRANCH  13  15
BRANCH  13  23
ATOM     23  CB  THR A   2      38.914  25.581  70.964  0.00  0.00    +0.137 C 
ATOM     24  CG2 THR A   2      38.784  25.731  72.454  0.00  0.00    +0.034 C 
BRANCH  23  25
ATOM     25  OG1 THR A   2      39.240  24.226  70.647  0.00  0.00    -0.382 OA
ATOM     26  HG1 THR A   2      38.504  23.633  70.941  0.00  0.00    +0.210 HD
ENDBRANCH  23  25
ENDBRANCH  13  23
ENDBRANCH   6  13
ENDBRANCH   2   9
ENDBRANCH   1   4
BRANCH   1  27
ATOM     27  C   VAL A   4      38.403  21.936  73.546  0.00  0.00    +0.241 C 
ATOM     28  N   ASN A   5      38.695  21.732  74.831  0.00  0.00    -0.297 N 
ATOM     29  H   ASN A   5      37.998  21.258  75.440  0.00  0.00    +0.150 HD
ATOM     30  O   VAL A   4      39.198  22.431  72.739  0.00  0.00    -0.273 OA
BRANCH  28  31
ATOM     31  CA  ASN A   5      39.971  22.158  75.406  0.00  0.00    +0.158 C 
BRANCH  31  32
ATOM     32  C   ASN A   5      41.048  21.214  74.838  0.00  0.00    +0.241 C 
ATOM     33  O   ASN A   5      40.905  19.985  74.867  0.00  0.00    -0.273 OA
ATOM     34  N   ILE A   6      42.146  21.799  74.378  0.00  0.00    -0.298 N 
ATOM     35  H   ILE A   6      42.222  22.833  74.459  0.00  0.00    +0.150 HD
BRANCH  34  36
ATOM     36  CA  ILE A   6      43.252  21.075  73.766  0.00  0.00    +0.137 C 
BRANCH  36  37
ATOM     37  C   ILE A   6      44.563  21.322  74.513  0.00  0.00    +0.227 C 
ATOM     38  O   ILE A   6      44.926  22.467  74.794  0.00  0.00    -0.286 OA
ENDBRANCH  36  37
BRANCH  36  39
ATOM     39  CB  ILE A   6      43.429  21.546  72.294  0.00  0.00    +0.026 C 
ATOM     40  CG2 ILE A   6      44.726  21.039  71.709  0.00  0.00    +0.002 C 
BRANCH  39  41
ATOM     41  CG1 ILE A   6      42.216  21.135  71.453  0.00  0.00    +0.002 C 
ATOM     42  CD1 ILE A   6      42.373  21.452  69.993  0.00  0.00    +0.000 C 
ENDBRANCH  39  41
ENDBRANCH  36  39
ENDBRANCH  34  36
ENDBRANCH  31  32
BRANCH  31  43
ATOM     43  CB  ASN A   5      39.970  22.048  76.935  0.00  0.00    +0.114 C 
BRANCH  43  44
ATOM     44  CG  ASN A   5      38.956  22.952  77.596  0.00  0.00    +0.222 C 
ATOM     45  ND2 ASN A   5      38.269  22.424  78.583  0.00  0.00    -0.329 N 
ATOM     46 HD21 ASN A   5      37.571  22.999  79.096  0.00  0.00    +0.145 HD
ATOM     47 HD22 ASN A   5      38.423  21.431  78.851  0.00  0.00    +0.145 HD
ATOM     48  OD1 ASN A   5      38.809  24.113  77.246  0.00  0.00    -0.275 OA
ENDBRANCH  43  44
ENDBRANCH  31  43
ENDBRANCH  28  31
ENDBRANCH   1  27
BRANCH   1  49
ATOM     49  CB  VAL A   4      37.534  19.948  72.693  0.00  0.00    +0.027 C 
ATOM     50  CG2 VAL A   4      36.821  18.937  73.547  0.00  0.00    +0.002 C 
ATOM     51  CG1 VAL A   4      37.455  19.688  71.195  0.00  0.00    +0.002 C 
ENDBRANCH   1  49
TORSDOF 17
REMARK  Name = ../refined-set-2016/1a9m/1a9m_pocket.pdb
REMARK  211 active torsions:
REMARK  status: ('A' for Active; 'I' for Inactive)
REMARK    1  A    between atoms: _1  and  _3
REMARK    2  A    between atoms: _3  and  _4
REMARK    3  A    between atoms: _3  and  _6
REMARK    4  A    between atoms: _6  and  _7
REMARK    5  A    between atoms: _7  and  _8
REMARK    6  A    between atoms: _8  and  _9
REMARK    7  A    between atoms: _18  and  _20
REMARK    8  A    between atoms: _20  and  _21
REMARK    9  A    between atoms: _20  and  _23
REMARK   10  A    between atoms: _23  and  _24
REMARK   11  A    between atoms: _27  and  _29
REMARK   12  A    between atoms: _29  and  _30
REMARK   13  A    between atoms: _29  and  _32
REMARK   14  A    between atoms: _32  and  _33
REMARK   15  A    between atoms: _36  and  _38
REMARK   16  A    between atoms: _38  and  _39
REMARK   17  A    between atoms: _38  and  _41
REMARK   18  A    between atoms: _41  and  _42
REMARK   19  A    between atoms: _45  and  _47
REMARK   20  A    between atoms: _47  and  _48
REMARK   21  A    between atoms: _47  and  _50
REMARK   22  A    between atoms: _50  and  _51
REMARK   23  A    between atoms: _54  and  _56
REMARK   24  A    between atoms: _56  and  _57
REMARK   25  A    between atoms: _56  and  _59
REMARK   26  A    between atoms: _59  and  _60
REMARK   27  A    between atoms: _63  and  _65
REMARK   28  A    between atoms: _65  and  _66
REMARK   29  A    between atoms: _68  and  _70
REMARK   30  A    between atoms: _70  and  _71
REMARK   31  A    between atoms: _74  and  _76
REMARK   32  A    between atoms: _76  and  _77
REMARK   33  A    between atoms: _76  and  _79
REMARK   34  A    between atoms: _79  and  _80
REMARK   35  A    between atoms: _83  and  _85
REMARK   36  A    between atoms: _85  and  _86
REMARK   37  A    between atoms: _85  and  _88
REMARK   38  A    between atoms: _88  and  _89
REMARK   39  A    between atoms: _92  and  _94
REMARK   40  A    between atoms: _94  and  _95
REMARK   41  A    between atoms: _94  and  _97
REMARK   42  A    between atoms: _97  and  _98
REMARK   43  A    between atoms: _101  and  _103
REMARK   44  A    between atoms: _103  and  _104
REMARK   45  A    between atoms: _103  and  _106
REMARK   46  A    between atoms: _109  and  _111
REMARK   47  A    between atoms: _111  and  _112
REMARK   48  A    between atoms: _111  and  _114
REMARK   49  A    between atoms: _114  and  _115
REMARK   50  A    between atoms: _118  and  _120
REMARK   51  A    between atoms: _120  and  _121
REMARK   52  A    between atoms: _120  and  _123
REMARK   53  A    between atoms: _123  and  _124
REMARK   54  A    between atoms: _129  and  _131
REMARK   55  A    between atoms: _131  and  _132
REMARK   56  A    between atoms: _134  and  _136
REMARK   57  A    between atoms: _136  and  _137
REMARK   58  A    between atoms: _136  and  _139
REMARK   59  A    between atoms: _139  and  _140
REMARK   60  A    between atoms: _143  and  _145
REMARK   61  A    between atoms: _145  and  _146
REMARK   62  A    between atoms: _148  and  _150
REMARK   63  A    between atoms: _150  and  _151
REMARK   64  A    between atoms: _153  and  _155
REMARK   65  A    between atoms: _155  and  _156
REMARK   66  A    between atoms: _155  and  _158
REMARK   67  A    between atoms: _158  and  _159
REMARK   68  A    between atoms: _163  and  _164
REMARK   69  A    between atoms: _169  and  _171
REMARK   70  A    between atoms: _171  and  _172
REMARK   71  A    between atoms: _171  and  _174
REMARK   72  A    between atoms: _174  and  _175
REMARK   73  A    between atoms: _179  and  _180
REMARK   74  A    between atoms: _185  and  _187
REMARK   75  A    between atoms: _187  and  _188
REMARK   76  A    between atoms: _187  and  _190
REMARK   77  A    between atoms: _193  and  _195
REMARK   78  A    between atoms: _195  and  _196
REMARK   79  A    between atoms: _195  and  _198
REMARK   80  A    between atoms: _198  and  _199
REMARK   81  A    between atoms: _204  and  _206
REMARK   82  A    between atoms: _206  and  _207
REMARK   83  A    between atoms: _206  and  _209
REMARK   84  A    between atoms: _209  and  _210
REMARK   85  A    between atoms: _213  and  _215
REMARK   86  A    between atoms: _215  and  _216
REMARK   87  A    between atoms: _218  and  _220
REMARK   88  A    between atoms: _220  and  _221
REMARK   89  A    between atoms: _220  and  _223
REMARK   90  A    between atoms: _223  and  _224
REMARK   91  A    between atoms: _224  and  _225
REMARK   92  A    between atoms: _225  and  _226
REMARK   93  A    between atoms: _235  and  _237
REMARK   94  A    between atoms: _237  and  _238
REMARK   95  A    between atoms: _237  and  _240
REMARK   96  A    between atoms: _240  and  _241
REMARK   97  A    between atoms: _241  and  _242
REMARK   98  A    between atoms: _242  and  _243
REMARK   99  A    between atoms: _252  and  _254
REMARK  100  A    between atoms: _254  and  _255
REMARK  101  A    between atoms: _254  and  _257
REMARK  102  A    between atoms: _257  and  _258
REMARK  103  A    between atoms: _261  and  _263
REMARK  104  A    between atoms: _263  and  _264
REMARK  105  A    between atoms: _263  and  _266
REMARK  106  A    between atoms: _266  and  _267
REMARK  107  A    between atoms: _270  and  _272
REMARK  108  A    between atoms: _272  and  _273
REMARK  109  A    between atoms: _272  and  _275
REMARK  110  A    between atoms: _275  and  _276
REMARK  111  A    between atoms: _279  and  _281
REMARK  112  A    between atoms: _281  and  _282
REMARK  113  A    between atoms: _281  and  _284
REMARK  114  A    between atoms: _284  and  _285
REMARK  115  A    between atoms: _288  and  _290
REMARK  116  A    between atoms: _290  and  _291
REMARK  117  A    between atoms: _293  and  _295
REMARK  118  A    between atoms: _295  and  _296
REMARK  119  A    between atoms: _299  and  _301
REMARK  120  A    between atoms: _301  and  _302
REMARK  121  A    between atoms: _301  and  _304
REMARK  122  A    between atoms: _304  and  _305
REMARK  123  A    between atoms: _308  and  _310
REMARK  124  A    between atoms: _310  and  _311
REMARK  125  A    between atoms: _310  and  _313
REMARK  126  A    between atoms: _313  and  _314
REMARK  127  A    between atoms: _317  and  _319
REMARK  128  A    between atoms: _319  and  _320
REMARK  129  A    between atoms: _319  and  _322
REMARK  130  A    between atoms: _322  and  _323
REMARK  131  A    between atoms: _326  and  _328
REMARK  132  A    between atoms: _328  and  _329
REMARK  133  A    between atoms: _328  and  _331
REMARK  134  A    between atoms: _334  and  _336
REMARK  135  A    between atoms: _336  and  _337
REMARK  136  A    between atoms: _336  and  _339
REMARK  137  A    between atoms: _339  and  _340
REMARK  138  A    between atoms: _340  and  _341
REMARK  139  A    between atoms: _341  and  _342
REMARK  140  A    between atoms: _342  and  _343
REMARK  141  A    between atoms: _347  and  _349
REMARK  142  A    between atoms: _349  and  _350
REMARK  143  A    between atoms: _349  and  _352
REMARK  144  A    between atoms: _352  and  _353
REMARK  145  A    between atoms: _353  and  _354
REMARK  146  A    between atoms: _356  and  _358
REMARK  147  A    between atoms: _358  and  _359
REMARK  148  A    between atoms: _358  and  _361
REMARK  149  A    between atoms: _361  and  _362
REMARK  150  A    between atoms: _365  and  _367
REMARK  151  A    between atoms: _367  and  _368
REMARK  152  A    between atoms: _367  and  _370
REMARK  153  A    between atoms: _370  and  _371
REMARK  154  A    between atoms: _376  and  _378
REMARK  155  A    between atoms: _378  and  _379
REMARK  156  A    between atoms: _381  and  _383
REMARK  157  A    between atoms: _383  and  _384
REMARK  158  A    between atoms: _383  and  _386
REMARK  159  A    between atoms: _386  and  _387
REMARK  160  A    between atoms: _390  and  _392
REMARK  161  A    between atoms: _392  and  _393
REMARK  162  A    between atoms: _395  and  _397
REMARK  163  A    between atoms: _397  and  _398
REMARK  164  A    between atoms: _400  and  _402
REMARK  165  A    between atoms: _402  and  _403
REMARK  166  A    between atoms: _402  and  _405
REMARK  167  A    between atoms: _405  and  _406
REMARK  168  A    between atoms: _412  and  _414
REMARK  169  A    between atoms: _414  and  _415
REMARK  170  A    between atoms: _414  and  _417
REMARK  171  A    between atoms: _417  and  _418
REMARK  172  A    between atoms: _421  and  _423
REMARK  173  A    between atoms: _423  and  _424
REMARK  174  A    between atoms: _423  and  _426
REMARK  175  A    between atoms: _429  and  _431
REMARK  176  A    between atoms: _431  and  _432
REMARK  177  A    between atoms: _431  and  _434
REMARK  178  A    between atoms: _434  and  _435
REMARK  179  A    between atoms: _439  and  _440
REMARK  180  A    between atoms: _445  and  _447
REMARK  181  A    between atoms: _447  and  _448
REMARK  182  A    between atoms: _447  and  _450
REMARK  183  A    between atoms: _450  and  _451
REMARK  184  A    between atoms: _455  and  _456
REMARK  185  A    between atoms: _461  and  _463
REMARK  186  A    between atoms: _463  and  _464
REMARK  187  A    between atoms: _463  and  _466
REMARK  188  A    between atoms: _469  and  _471
REMARK  189  A    between atoms: _471  and  _472
REMARK  190  A    between atoms: _471  and  _474
REMARK  191  A    between atoms: _474  and  _475
REMARK  192  A    between atoms: _480  and  _482
REMARK  193  A    between atoms: _482  and  _483
REMARK  194  A    between atoms: _482  and  _485
REMARK  195  A    between atoms: _485  and  _486
REMARK  196  A    between atoms: _489  and  _491
REMARK  197  A    between atoms: _491  and  _492
REMARK  198  A    between atoms: _491  and  _494
REMARK  199  A    between atoms: _494  and  _495
REMARK  200  A    between atoms: _498  and  _500
REMARK  201  A    between atoms: _500  and  _501
REMARK  202  A    between atoms: _503  and  _505
REMARK  203  A    between atoms: _505  and  _506
REMARK  204  A    between atoms: _505  and  _508
REMARK  205  A    between atoms: _508  and  _509
REMARK  206  A    between atoms: _509  and  _510
REMARK  207  A    between atoms: _510  and  _511
REMARK  208  A    between atoms: _520  and  _522
REMARK  209  A    between atoms: _522  and  _523
REMARK  210  A    between atoms: _522  and  _525
REMARK  211  A    between atoms: _525  and  _526
REMARK                            x       y       z     vdW  Elec       q    Type
REMARK                         _______ _______ _______ _____ _____    ______ ____
ROOT
ATOM      1  CB  ARG A   2      53.593  19.666  71.361  0.00  0.00    +0.031 C 
ENDROOT
BRANCH   1   2
ATOM      2  CA  ARG A   2      52.785  19.867  72.645  0.00  0.00    +0.137 C 
BRANCH   2   5
ATOM      3  C   GLY A   1      50.522  20.458  73.324  0.00  0.00    +0.240 C 
ATOM      4  O   GLY A   1      50.772  20.299  74.534  0.00  0.00    -0.274 OA
ATOM      5  N   ARG A   2      51.430  20.323  72.366  0.00  0.00    -0.298 N 
ATOM      6  H   ARG A   2      51.166  20.550  71.386  0.00  0.00    +0.150 HD
BRANCH   3   7
ATOM      7  CA  GLY A   1      49.153  20.917  72.881  0.00  0.00    +0.169 C 
BRANCH   7   8
ATOM      8  N   GLY A   1      48.218  21.066  73.979  0.00  0.00    -0.236 NA
ATOM      9  H   GLY A   1      48.113  21.993  74.438  0.00  0.00    +0.142 HD
ENDBRANCH   7   8
ENDBRANCH   3   7
ENDBRANCH   2   5
BRANCH   2  10
ATOM     10  C   ARG A   2      53.568  20.765  73.597  0.00  0.00    +0.227 C 
ATOM     11  O   ARG A   2      54.455  20.280  74.303  0.00  0.00    -0.286 OA
ENDBRANCH   2  10
ENDBRANCH   1   2
BRANCH   1  12
ATOM     12  CG  ARG A   2      53.085  18.610  70.460  0.00  0.00    +0.045 C 
BRANCH  12  13
ATOM     13  CD  ARG A   2      54.008  18.474  69.270  0.00  0.00    +0.174 C 
BRANCH  13  14
ATOM     14  NE  ARG A   2      54.011  19.659  68.417  0.00  0.00    -0.265 N 
ATOM     15  CZ  ARG A   2      55.052  20.481  68.314  0.00  0.00    +0.342 C 
ATOM     16  NH2 ARG A   2      56.149  20.234  69.009  0.00  0.00    -0.292 N 
ATOM     17 HH21 ARG A   2      56.194  19.402  69.631  0.00  0.00    +0.255 HD
ATOM     18 HH22 ARG A   2      56.967  20.872  68.934  0.00  0.00    +0.255 HD
ATOM     19  NH1 ARG A   2      55.019  21.528  67.503  0.00  0.00    -0.292 N 
ATOM     20 HH11 ARG A   2      55.842  22.160  67.436  0.00  0.00    +0.255 HD
ATOM     21 HH12 ARG A   2      54.170  21.718  66.934  0.00  0.00    +0.255 HD
ATOM     22  HE  ARG A   2      53.157  19.871  67.862  0.00  0.00    +0.259 HD
ENDBRANCH  13  14
ENDBRANCH  12  13
ENDBRANCH   1  12
TORSDOF 8
REMARK  Name = ../refined-set-2016/1a9m/1a9m_pocket.pdb
REMARK  211 active torsions:
REMARK  status: ('A' for Active; 'I' for Inactive)
REMARK    1  A    between atoms: _1  and  _3
REMARK    2  A    between atoms: _3  and  _4
REMARK    3  A    between atoms: _3  and  _6
REMARK    4  A    between atoms: _6  and  _7
REMARK    5  A    between atoms: _7  and  _8
REMARK    6  A    between atoms: _8  and  _9
REMARK    7  A    between atoms: _18  and  _20
REMARK    8  A    between atoms: _20  and  _21
REMARK    9  A    between atoms: _20  and  _23
REMARK   10  A    between atoms: _23  and  _24
REMARK   11  A    between atoms: _27  and  _29
REMARK   12  A    between atoms: _29  and  _30
REMARK   13  A    between atoms: _29  and  _32
REMARK   14  A    between atoms: _32  and  _33
REMARK   15  A    between atoms: _36  and  _38
REMARK   16  A    between atoms: _38  and  _39
REMARK   17  A    between atoms: _38  and  _41
REMARK   18  A    between atoms: _41  and  _42
REMARK   19  A    between atoms: _45  and  _47
REMARK   20  A    between atoms: _47  and  _48
REMARK   21  A    between atoms: _47  and  _50
REMARK   22  A    between atoms: _50  and  _51
REMARK   23  A    between atoms: _54  and  _56
REMARK   24  A    between atoms: _56  and  _57
REMARK   25  A    between atoms: _56  and  _59
REMARK   26  A    between atoms: _59  and  _60
REMARK   27  A    between atoms: _63  and  _65
REMARK   28  A    between atoms: _65  and  _66
REMARK   29  A    between atoms: _68  and  _70
REMARK   30  A    between atoms: _70  and  _71
REMARK   31  A    between atoms: _74  and  _76
REMARK   32  A    between atoms: _76  and  _77
REMARK   33  A    between atoms: _76  and  _79
REMARK   34  A    between atoms: _79  and  _80
REMARK   35  A    between atoms: _83  and  _85
REMARK   36  A    between atoms: _85  and  _86
REMARK   37  A    between atoms: _85  and  _88
REMARK   38  A    between atoms: _88  and  _89
REMARK   39  A    between atoms: _92  and  _94
REMARK   40  A    between atoms: _94  and  _95
REMARK   41  A    between atoms: _94  and  _97
REMARK   42  A    between atoms: _97  and  _98
REMARK   43  A    between atoms: _101  and  _103
REMARK   44  A    between atoms: _103  and  _104
REMARK   45  A    between atoms: _103  and  _106
REMARK   46  A    between atoms: _109  and  _111
REMARK   47  A    between atoms: _111  and  _112
REMARK   48  A    between atoms: _111  and  _114
REMARK   49  A    between atoms: _114  and  _115
REMARK   50  A    between atoms: _118  and  _120
REMARK   51  A    between atoms: _120  and  _121
REMARK   52  A    between atoms: _120  and  _123
REMARK   53  A    between atoms: _123  and  _124
REMARK   54  A    between atoms: _129  and  _131
REMARK   55  A    between atoms: _131  and  _132
REMARK   56  A    between atoms: _134  and  _136
REMARK   57  A    between atoms: _136  and  _137
REMARK   58  A    between atoms: _136  and  _139
REMARK   59  A    between atoms: _139  and  _140
REMARK   60  A    between atoms: _143  and  _145
REMARK   61  A    between atoms: _145  and  _146
REMARK   62  A    between atoms: _148  and  _150
REMARK   63  A    between atoms: _150  and  _151
REMARK   64  A    between atoms: _153  and  _155
REMARK   65  A    between atoms: _155  and  _156
REMARK   66  A    between atoms: _155  and  _158
REMARK   67  A    between atoms: _158  and  _159
REMARK   68  A    between atoms: _163  and  _164
REMARK   69  A    between atoms: _169  and  _171
REMARK   70  A    between atoms: _171  and  _172
REMARK   71  A    between atoms: _171  and  _174
REMARK   72  A    between atoms: _174  and  _175
REMARK   73  A    between atoms: _179  and  _180
REMARK   74  A    between atoms: _185  and  _187
REMARK   75  A    between atoms: _187  and  _188
REMARK   76  A    between atoms: _187  and  _190
REMARK   77  A    between atoms: _193  and  _195
REMARK   78  A    between atoms: _195  and  _196
REMARK   79  A    between atoms: _195  and  _198
REMARK   80  A    between atoms: _198  and  _199
REMARK   81  A    between atoms: _204  and  _206
REMARK   82  A    between atoms: _206  and  _207
REMARK   83  A    between atoms: _206  and  _209
REMARK   84  A    between atoms: _209  and  _210
REMARK   85  A    between atoms: _213  and  _215
REMARK   86  A    between atoms: _215  and  _216
REMARK   87  A    between atoms: _218  and  _220
REMARK   88  A    between atoms: _220  and  _221
REMARK   89  A    between atoms: _220  and  _223
REMARK   90  A    between atoms: _223  and  _224
REMARK   91  A    between atoms: _224  and  _225
REMARK   92  A    between atoms: _225  and  _226
REMARK   93  A    between atoms: _235  and  _237
REMARK   94  A    between atoms: _237  and  _238
REMARK   95  A    between atoms: _237  and  _240
REMARK   96  A    between atoms: _240  and  _241
REMARK   97  A    between atoms: _241  and  _242
REMARK   98  A    between atoms: _242  and  _243
REMARK   99  A    between atoms: _252  and  _254
REMARK  100  A    between atoms: _254  and  _255
REMARK  101  A    between atoms: _254  and  _257
REMARK  102  A    between atoms: _257  and  _258
REMARK  103  A    between atoms: _261  and  _263
REMARK  104  A    between atoms: _263  and  _264
REMARK  105  A    between atoms: _263  and  _266
REMARK  106  A    between atoms: _266  and  _267
REMARK  107  A    between atoms: _270  and  _272
REMARK  108  A    between atoms: _272  and  _273
REMARK  109  A    between atoms: _272  and  _275
REMARK  110  A    between atoms: _275  and  _276
REMARK  111  A    between atoms: _279  and  _281
REMARK  112  A    between atoms: _281  and  _282
REMARK  113  A    between atoms: _281  and  _284
REMARK  114  A    between atoms: _284  and  _285
REMARK  115  A    between atoms: _288  and  _290
REMARK  116  A    between atoms: _290  and  _291
REMARK  117  A    between atoms: _293  and  _295
REMARK  118  A    between atoms: _295  and  _296
REMARK  119  A    between atoms: _299  and  _301
REMARK  120  A    between atoms: _301  and  _302
REMARK  121  A    between atoms: _301  and  _304
REMARK  122  A    between atoms: _304  and  _305
REMARK  123  A    between atoms: _308  and  _310
REMARK  124  A    between atoms: _310  and  _311
REMARK  125  A    between atoms: _310  and  _313
REMARK  126  A    between atoms: _313  and  _314
REMARK  127  A    between atoms: _317  and  _319
REMARK  128  A    between atoms: _319  and  _320
REMARK  129  A    between atoms: _319  and  _322
REMARK  130  A    between atoms: _322  and  _323
REMARK  131  A    between atoms: _326  and  _328
REMARK  132  A    between atoms: _328  and  _329
REMARK  133  A    between atoms: _328  and  _331
REMARK  134  A    between atoms: _334  and  _336
REMARK  135  A    between atoms: _336  and  _337
REMARK  136  A    between atoms: _336  and  _339
REMARK  137  A    between atoms: _339  and  _340
REMARK  138  A    between atoms: _340  and  _341
REMARK  139  A    between atoms: _341  and  _342
REMARK  140  A    between atoms: _342  and  _343
REMARK  141  A    between atoms: _347  and  _349
REMARK  142  A    between atoms: _349  and  _350
REMARK  143  A    between atoms: _349  and  _352
REMARK  144  A    between atoms: _352  and  _353
REMARK  145  A    between atoms: _353  and  _354
REMARK  146  A    between atoms: _356  and  _358
REMARK  147  A    between atoms: _358  and  _359
REMARK  148  A    between atoms: _358  and  _361
REMARK  149  A    between atoms: _361  and  _362
REMARK  150  A    between atoms: _365  and  _367
REMARK  151  A    between atoms: _367  and  _368
REMARK  152  A    between atoms: _367  and  _370
REMARK  153  A    between atoms: _370  and  _371
REMARK  154  A    between atoms: _376  and  _378
REMARK  155  A    between atoms: _378  and  _379
REMARK  156  A    between atoms: _381  and  _383
REMARK  157  A    between atoms: _383  and  _384
REMARK  158  A    between atoms: _383  and  _386
REMARK  159  A    between atoms: _386  and  _387
REMARK  160  A    between atoms: _390  and  _392
REMARK  161  A    between atoms: _392  and  _393
REMARK  162  A    between atoms: _395  and  _397
REMARK  163  A    between atoms: _397  and  _398
REMARK  164  A    between atoms: _400  and  _402
REMARK  165  A    between atoms: _402  and  _403
REMARK  166  A    between atoms: _402  and  _405
REMARK  167  A    between atoms: _405  and  _406
REMARK  168  A    between atoms: _412  and  _414
REMARK  169  A    between atoms: _414  and  _415
REMARK  170  A    between atoms: _414  and  _417
REMARK  171  A    between atoms: _417  and  _418
REMARK  172  A    between atoms: _421  and  _423
REMARK  173  A    between atoms: _423  and  _424
REMARK  174  A    between atoms: _423  and  _426
REMARK  175  A    between atoms: _429  and  _431
REMARK  176  A    between atoms: _431  and  _432
REMARK  177  A    between atoms: _431  and  _434
REMARK  178  A    between atoms: _434  and  _435
REMARK  179  A    between atoms: _439  and  _440
REMARK  180  A    between atoms: _445  and  _447
REMARK  181  A    between atoms: _447  and  _448
REMARK  182  A    between atoms: _447  and  _450
REMARK  183  A    between atoms: _450  and  _451
REMARK  184  A    between atoms: _455  and  _456
REMARK  185  A    between atoms: _461  and  _463
REMARK  186  A    between atoms: _463  and  _464
REMARK  187  A    between atoms: _463  and  _466
REMARK  188  A    between atoms: _469  and  _471
REMARK  189  A    between atoms: _471  and  _472
REMARK  190  A    between atoms: _471  and  _474
REMARK  191  A    between atoms: _474  and  _475
REMARK  192  A    between atoms: _480  and  _482
REMARK  193  A    between atoms: _482  and  _483
REMARK  194  A    between atoms: _482  and  _485
REMARK  195  A    between atoms: _485  and  _486
REMARK  196  A    between atoms: _489  and  _491
REMARK  197  A    between atoms: _491  and  _492
REMARK  198  A    between atoms: _491  and  _494
REMARK  199  A    between atoms: _494  and  _495
REMARK  200  A    between atoms: _498  and  _500
REMARK  201  A    between atoms: _500  and  _501
REMARK  202  A    between atoms: _503  and  _505
REMARK  203  A    between atoms: _505  and  _506
REMARK  204  A    between atoms: _505  and  _508
REMARK  205  A    between atoms: _508  and  _509
REMARK  206  A    between atoms: _509  and  _510
REMARK  207  A    between atoms: _510  and  _511
REMARK  208  A    between atoms: _520  and  _522
REMARK  209  A    between atoms: _522  and  _523
REMARK  210  A    between atoms: _522  and  _525
REMARK  211  A    between atoms: _525  and  _526
REMARK                            x       y       z     vdW  Elec       q    Type
REMARK                         _______ _______ _______ _____ _____    ______ ____
ROOT
ATOM      1  NE  ARG A   1      53.084  21.791  63.601  0.00  0.00    -0.265 N 
ATOM      2  HE  ARG A   1      53.174  22.170  64.565  0.00  0.00    +0.259 HD
ATOM      3  CZ  ARG A   1      52.034  22.198  62.882  0.00  0.00    +0.342 C 
ATOM      4  NH2 ARG A   1      51.113  22.976  63.449  0.00  0.00    -0.292 N 
ATOM      5 HH21 ARG A   1      51.215  23.262  64.444  0.00  0.00    +0.255 HD
ATOM      6 HH22 ARG A   1      50.292  23.297  62.897  0.00  0.00    +0.255 HD
ATOM      7  NH1 ARG A   1      51.856  21.779  61.626  0.00  0.00    -0.292 N 
ATOM      8 HH11 ARG A   1      52.540  21.126  61.194  0.00  0.00    +0.255 HD
ATOM      9 HH12 ARG A   1      51.033  22.106  61.081  0.00  0.00    +0.255 HD
ENDROOT
BRANCH   1  10
ATOM     10  CD  ARG A   1      54.118  20.859  63.151  0.00  0.00    +0.174 C 
BRANCH  10  11
ATOM     11  CG  ARG A   1      54.730  20.122  64.321  0.00  0.00    +0.045 C 
BRANCH  11  12
ATOM     12  CB  ARG A   1      55.357  18.798  63.940  0.00  0.00    +0.029 C 
BRANCH  12  13
ATOM     13  CA  ARG A   1      55.805  18.034  65.185  0.00  0.00    +0.133 C 
BRANCH  13  14
ATOM     14  N   ARG A   1      57.023  18.615  65.700  0.00  0.00    -0.239 NA
ATOM     15  H   ARG A   1      57.477  19.384  65.167  0.00  0.00    +0.142 HD
ENDBRANCH  13  14
BRANCH  13  16
ATOM     16  C   ARG A   1      56.066  16.574  64.865  0.00  0.00    +0.224 C 
ATOM     17  O   ARG A   1      57.043  16.250  64.205  0.00  0.00    -0.287 OA
ENDBRANCH  13  16
ENDBRANCH  12  13
ENDBRANCH  11  12
ENDBRANCH  10  11
ENDBRANCH   1  10
TORSDOF 6
REMARK  Name = ../refined-set-2016/1a9m/1a9m_pocket.pdb
REMARK  211 active torsions:
REMARK  status: ('A' for Active; 'I' for Inactive)
REMARK    1  A    between atoms: _1  and  _3
REMARK    2  A    between atoms: _3  and  _4
REMARK    3  A    between atoms: _3  and  _6
REMARK    4  A    between atoms: _6  and  _7
REMARK    5  A    between atoms: _7  and  _8
REMARK    6  A    between atoms: _8  and  _9
REMARK    7  A    between atoms: _18  and  _20
REMARK    8  A    between atoms: _20  and  _21
REMARK    9  A    between atoms: _20  and  _23
REMARK   10  A    between atoms: _23  and  _24
REMARK   11  A    between atoms: _27  and  _29
REMARK   12  A    between atoms: _29  and  _30
REMARK   13  A    between atoms: _29  and  _32
REMARK   14  A    between atoms: _32  and  _33
REMARK   15  A    between atoms: _36  and  _38
REMARK   16  A    between atoms: _38  and  _39
REMARK   17  A    between atoms: _38  and  _41
REMARK   18  A    between atoms: _41  and  _42
REMARK   19  A    between atoms: _45  and  _47
REMARK   20  A    between atoms: _47  and  _48
REMARK   21  A    between atoms: _47  and  _50
REMARK   22  A    between atoms: _50  and  _51
REMARK   23  A    between atoms: _54  and  _56
REMARK   24  A    between atoms: _56  and  _57
REMARK   25  A    between atoms: _56  and  _59
REMARK   26  A    between atoms: _59  and  _60
REMARK   27  A    between atoms: _63  and  _65
REMARK   28  A    between atoms: _65  and  _66
REMARK   29  A    between atoms: _68  and  _70
REMARK   30  A    between atoms: _70  and  _71
REMARK   31  A    between atoms: _74  and  _76
REMARK   32  A    between atoms: _76  and  _77
REMARK   33  A    between atoms: _76  and  _79
REMARK   34  A    between atoms: _79  and  _80
REMARK   35  A    between atoms: _83  and  _85
REMARK   36  A    between atoms: _85  and  _86
REMARK   37  A    between atoms: _85  and  _88
REMARK   38  A    between atoms: _88  and  _89
REMARK   39  A    between atoms: _92  and  _94
REMARK   40  A    between atoms: _94  and  _95
REMARK   41  A    between atoms: _94  and  _97
REMARK   42  A    between atoms: _97  and  _98
REMARK   43  A    between atoms: _101  and  _103
REMARK   44  A    between atoms: _103  and  _104
REMARK   45  A    between atoms: _103  and  _106
REMARK   46  A    between atoms: _109  and  _111
REMARK   47  A    between atoms: _111  and  _112
REMARK   48  A    between atoms: _111  and  _114
REMARK   49  A    between atoms: _114  and  _115
REMARK   50  A    between atoms: _118  and  _120
REMARK   51  A    between atoms: _120  and  _121
REMARK   52  A    between atoms: _120  and  _123
REMARK   53  A    between atoms: _123  and  _124
REMARK   54  A    between atoms: _129  and  _131
REMARK   55  A    between atoms: _131  and  _132
REMARK   56  A    between atoms: _134  and  _136
REMARK   57  A    between atoms: _136  and  _137
REMARK   58  A    between atoms: _136  and  _139
REMARK   59  A    between atoms: _139  and  _140
REMARK   60  A    between atoms: _143  and  _145
REMARK   61  A    between atoms: _145  and  _146
REMARK   62  A    between atoms: _148  and  _150
REMARK   63  A    between atoms: _150  and  _151
REMARK   64  A    between atoms: _153  and  _155
REMARK   65  A    between atoms: _155  and  _156
REMARK   66  A    between atoms: _155  and  _158
REMARK   67  A    between atoms: _158  and  _159
REMARK   68  A    between atoms: _163  and  _164
REMARK   69  A    between atoms: _169  and  _171
REMARK   70  A    between atoms: _171  and  _172
REMARK   71  A    between atoms: _171  and  _174
REMARK   72  A    between atoms: _174  and  _175
REMARK   73  A    between atoms: _179  and  _180
REMARK   74  A    between atoms: _185  and  _187
REMARK   75  A    between atoms: _187  and  _188
REMARK   76  A    between atoms: _187  and  _190
REMARK   77  A    between atoms: _193  and  _195
REMARK   78  A    between atoms: _195  and  _196
REMARK   79  A    between atoms: _195  and  _198
REMARK   80  A    between atoms: _198  and  _199
REMARK   81  A    between atoms: _204  and  _206
REMARK   82  A    between atoms: _206  and  _207
REMARK   83  A    between atoms: _206  and  _209
REMARK   84  A    between atoms: _209  and  _210
REMARK   85  A    between atoms: _213  and  _215
REMARK   86  A    between atoms: _215  and  _216
REMARK   87  A    between atoms: _218  and  _220
REMARK   88  A    between atoms: _220  and  _221
REMARK   89  A    between atoms: _220  and  _223
REMARK   90  A    between atoms: _223  and  _224
REMARK   91  A    between atoms: _224  and  _225
REMARK   92  A    between atoms: _225  and  _226
REMARK   93  A    between atoms: _235  and  _237
REMARK   94  A    between atoms: _237  and  _238
REMARK   95  A    between atoms: _237  and  _240
REMARK   96  A    between atoms: _240  and  _241
REMARK   97  A    between atoms: _241  and  _242
REMARK   98  A    between atoms: _242  and  _243
REMARK   99  A    between atoms: _252  and  _254
REMARK  100  A    between atoms: _254  and  _255
REMARK  101  A    between atoms: _254  and  _257
REMARK  102  A    between atoms: _257  and  _258
REMARK  103  A    between atoms: _261  and  _263
REMARK  104  A    between atoms: _263  and  _264
REMARK  105  A    between atoms: _263  and  _266
REMARK  106  A    between atoms: _266  and  _267
REMARK  107  A    between atoms: _270  and  _272
REMARK  108  A    between atoms: _272  and  _273
REMARK  109  A    between atoms: _272  and  _275
REMARK  110  A    between atoms: _275  and  _276
REMARK  111  A    between atoms: _279  and  _281
REMARK  112  A    between atoms: _281  and  _282
REMARK  113  A    between atoms: _281  and  _284
REMARK  114  A    between atoms: _284  and  _285
REMARK  115  A    between atoms: _288  and  _290
REMARK  116  A    between atoms: _290  and  _291
REMARK  117  A    between atoms: _293  and  _295
REMARK  118  A    between atoms: _295  and  _296
REMARK  119  A    between atoms: _299  and  _301
REMARK  120  A    between atoms: _301  and  _302
REMARK  121  A    between atoms: _301  and  _304
REMARK  122  A    between atoms: _304  and  _305
REMARK  123  A    between atoms: _308  and  _310
REMARK  124  A    between atoms: _310  and  _311
REMARK  125  A    between atoms: _310  and  _313
REMARK  126  A    between atoms: _313  and  _314
REMARK  127  A    between atoms: _317  and  _319
REMARK  128  A    between atoms: _319  and  _320
REMARK  129  A    between atoms: _319  and  _322
REMARK  130  A    between atoms: _322  and  _323
REMARK  131  A    between atoms: _326  and  _328
REMARK  132  A    between atoms: _328  and  _329
REMARK  133  A    between atoms: _328  and  _331
REMARK  134  A    between atoms: _334  and  _336
REMARK  135  A    between atoms: _336  and  _337
REMARK  136  A    between atoms: _336  and  _339
REMARK  137  A    between atoms: _339  and  _340
REMARK  138  A    between atoms: _340  and  _341
REMARK  139  A    between atoms: _341  and  _342
REMARK  140  A    between atoms: _342  and  _343
REMARK  141  A    between atoms: _347  and  _349
REMARK  142  A    between atoms: _349  and  _350
REMARK  143  A    between atoms: _349  and  _352
REMARK  144  A    between atoms: _352  and  _353
REMARK  145  A    between atoms: _353  and  _354
REMARK  146  A    between atoms: _356  and  _358
REMARK  147  A    between atoms: _358  and  _359
REMARK  148  A    between atoms: _358  and  _361
REMARK  149  A    between atoms: _361  and  _362
REMARK  150  A    between atoms: _365  and  _367
REMARK  151  A    between atoms: _367  and  _368
REMARK  152  A    between atoms: _367  and  _370
REMARK  153  A    between atoms: _370  and  _371
REMARK  154  A    between atoms: _376  and  _378
REMARK  155  A    between atoms: _378  and  _379
REMARK  156  A    between atoms: _381  and  _383
REMARK  157  A    between atoms: _383  and  _384
REMARK  158  A    between atoms: _383  and  _386
REMARK  159  A    between atoms: _386  and  _387
REMARK  160  A    between atoms: _390  and  _392
REMARK  161  A    between atoms: _392  and  _393
REMARK  162  A    between atoms: _395  and  _397
REMARK  163  A    between atoms: _397  and  _398
REMARK  164  A    between atoms: _400  and  _402
REMARK  165  A    between atoms: _402  and  _403
REMARK  166  A    between atoms: _402  and  _405
REMARK  167  A    between atoms: _405  and  _406
REMARK  168  A    between atoms: _412  and  _414
REMARK  169  A    between atoms: _414  and  _415
REMARK  170  A    between atoms: _414  and  _417
REMARK  171  A    between atoms: _417  and  _418
REMARK  172  A    between atoms: _421  and  _423
REMARK  173  A    between atoms: _423  and  _424
REMARK  174  A    between atoms: _423  and  _426
REMARK  175  A    between atoms: _429  and  _431
REMARK  176  A    between atoms: _431  and  _432
REMARK  177  A    between atoms: _431  and  _434
REMARK  178  A    between atoms: _434  and  _435
REMARK  179  A    between atoms: _439  and  _440
REMARK  180  A    between atoms: _445  and  _447
REMARK  181  A    between atoms: _447  and  _448
REMARK  182  A    between atoms: _447  and  _450
REMARK  183  A    between atoms: _450  and  _451
REMARK  184  A    between atoms: _455  and  _456
REMARK  185  A    between atoms: _461  and  _463
REMARK  186  A    between atoms: _463  and  _464
REMARK  187  A    between atoms: _463  and  _466
REMARK  188  A    between atoms: _469  and  _471
REMARK  189  A    between atoms: _471  and  _472
REMARK  190  A    between atoms: _471  and  _474
REMARK  191  A    between atoms: _474  and  _475
REMARK  192  A    between atoms: _480  and  _482
REMARK  193  A    between atoms: _482  and  _483
REMARK  194  A    between atoms: _482  and  _485
REMARK  195  A    between atoms: _485  and  _486
REMARK  196  A    between atoms: _489  and  _491
REMARK  197  A    between atoms: _491  and  _492
REMARK  198  A    between atoms: _491  and  _494
REMARK  199  A    between atoms: _494  and  _495
REMARK  200  A    between atoms: _498  and  _500
REMARK  201  A    between atoms: _500  and  _501
REMARK  202  A    between atoms: _503  and  _505
REMARK  203  A    between atoms: _505  and  _506
REMARK  204  A    between atoms: _505  and  _508
REMARK  205  A    between atoms: _508  and  _509
REMARK  206  A    between atoms: _509  and  _510
REMARK  207  A    between atoms: _510  and  _511
REMARK  208  A    between atoms: _520  and  _522
REMARK  209  A    between atoms: _522  and  _523
REMARK  210  A    between atoms: _522  and  _525
REMARK  211  A    between atoms: _525  and  _526
REMARK                            x       y       z     vdW  Elec       q    Type
REMARK                         _______ _______ _______ _____ _____    ______ ____
ROOT
ATOM      1  C   GLY A   5      42.444  14.694  67.446  0.00  0.00    +0.243 C 
ATOM      2  O   GLY A   5      41.312  15.167  67.477  0.00  0.00    -0.273 OA
ATOM      3  N   ALA A   6      42.902  13.985  66.419  0.00  0.00    -0.297 N 
ATOM      4  H   ALA A   6      43.879  13.630  66.440  0.00  0.00    +0.150 HD
ENDROOT
BRANCH   3   5
ATOM      5  CA  ALA A   6      42.056  13.694  65.256  0.00  0.00    +0.149 C 
ATOM      6  CB  ALA A   6      42.872  13.770  63.981  0.00  0.00    +0.031 C 
BRANCH   5   7
ATOM      7  C   ALA A   6      41.306  12.340  65.343  0.00  0.00    +0.241 C 
ATOM      8  O   ALA A   6      41.892  11.289  65.601  0.00  0.00    -0.273 OA
ATOM      9  N   ASP A   7      39.993  12.382  65.172  0.00  0.00    -0.297 N 
ATOM     10  H   ASP A   7      39.536  13.301  65.004  0.00  0.00    +0.150 HD
BRANCH   9  11
ATOM     11  CA  ASP A   7      39.164  11.174  65.212  0.00  0.00    +0.160 C 
BRANCH  11  12
ATOM     12  C   ASP A   7      39.565  10.282  64.022  0.00  0.00    +0.241 C 
ATOM     13  O   ASP A   7      39.734   9.059  64.138  0.00  0.00    -0.273 OA
ATOM     14  N   ASP A   8      39.763  10.949  62.896  0.00  0.00    -0.297 N 
ATOM     15  H   ASP A   8      39.705  11.987  62.921  0.00  0.00    +0.150 HD
BRANCH  14  16
ATOM     16  CA  ASP A   8      40.054  10.312  61.638  0.00  0.00    +0.160 C 
BRANCH  16  17
ATOM     17  C   ASP A   8      41.324  10.749  60.985  0.00  0.00    +0.241 C 
ATOM     18  O   ASP A   8      42.036  11.617  61.472  0.00  0.00    -0.273 OA
ATOM     19  N   THR A   9      41.551  10.180  59.818  0.00  0.00    -0.295 N 
ATOM     20  H   THR A   9      40.846   9.515  59.440  0.00  0.00    +0.150 HD
BRANCH  19  21
ATOM     21  CA  THR A   9      42.731  10.442  59.051  0.00  0.00    +0.176 C 
BRANCH  21  22
ATOM     22  C   THR A   9      42.287  11.222  57.841  0.00  0.00    +0.243 C 
ATOM     23  N   VAL A  10      42.842  12.418  57.672  0.00  0.00    -0.298 N 
ATOM     24  H   VAL A  10      43.540  12.763  58.361  0.00  0.00    +0.150 HD
ATOM     25  O   THR A   9      41.408  10.775  57.100  0.00  0.00    -0.273 OA
BRANCH  23  26
ATOM     26  CA  VAL A  10      42.484  13.247  56.536  0.00  0.00    +0.137 C 
BRANCH  26  27
ATOM     27  CB  VAL A  10      41.493  14.427  56.932  0.00  0.00    +0.026 C 
ATOM     28  CG2 VAL A  10      41.764  14.917  58.322  0.00  0.00    +0.002 C 
ATOM     29  CG1 VAL A  10      41.541  15.567  55.921  0.00  0.00    +0.002 C 
ENDBRANCH  26  27
BRANCH  26  30
ATOM     30  C   VAL A  10      43.732  13.684  55.800  0.00  0.00    +0.227 C 
ATOM     31  O   VAL A  10      44.689  14.206  56.380  0.00  0.00    -0.286 OA
ENDBRANCH  26  30
ENDBRANCH  23  26
ENDBRANCH  21  22
BRANCH  21  32
ATOM     32  CB  THR A   9      43.372   9.100  58.660  0.00  0.00    +0.137 C 
ATOM     33  CG2 THR A   9      44.452   9.263  57.625  0.00  0.00    +0.034 C 
BRANCH  32  34
ATOM     34  OG1 THR A   9      43.923   8.500  59.831  0.00  0.00    -0.382 OA
ATOM     35  HG1 THR A   9      43.203   8.350  60.493  0.00  0.00    +0.210 HD
ENDBRANCH  32  34
ENDBRANCH  21  32
ENDBRANCH  19  21
ENDBRANCH  16  17
BRANCH  16  36
ATOM     36  CB  ASP A   8      38.896  10.594  60.683  0.00  0.00    +0.143 C 
BRANCH  36  37
ATOM     37  CG  ASP A   8      37.544  10.267  61.308  0.00  0.00    +0.367 C 
ATOM     38  OD2 ASP A   8      37.341   9.094  61.703  0.00  0.00    -0.246 OA
ATOM     39  OD1 ASP A   8      36.705  11.188  61.438  0.00  0.00    -0.246 OA
ENDBRANCH  36  37
ENDBRANCH  16  36
ENDBRANCH  14  16
ENDBRANCH  11  12
BRANCH  11  40
ATOM     40  CB  ASP A   7      37.675  11.550  65.014  0.00  0.00    +0.143 C 
BRANCH  40  41
ATOM     41  CG  ASP A   7      36.950  11.954  66.305  0.00  0.00    +0.367 C 
ATOM     42  OD2 ASP A   7      37.536  12.001  67.410  0.00  0.00    -0.246 OA
ATOM     43  OD1 ASP A   7      35.731  12.216  66.204  0.00  0.00    -0.246 OA
ENDBRANCH  40  41
ENDBRANCH  11  40
ENDBRANCH   9  11
ENDBRANCH   5   7
ENDBRANCH   3   5
BRANCH   1  44
ATOM     44  CA  GLY A   5      43.393  14.934  68.590  0.00  0.00    +0.176 C 
BRANCH  44  47
ATOM     45  C   THR A   4      44.683  12.939  68.963  0.00  0.00    +0.243 C 
ATOM     46  O   THR A   4      43.763  12.434  69.619  0.00  0.00    -0.273 OA
ATOM     47  N   GLY A   5      44.598  14.146  68.422  0.00  0.00    -0.295 N 
ATOM     48  H   GLY A   5      45.397  14.528  67.876  0.00  0.00    +0.150 HD
BRANCH  45  49
ATOM     49  CA  THR A   4      45.988  12.189  68.731  0.00  0.00    +0.176 C 
BRANCH  49  51
ATOM     50  C   ASP A   3      46.622  12.804  66.483  0.00  0.00    +0.241 C 
ATOM     51  N   THR A   4      46.878  12.864  67.788  0.00  0.00    -0.295 N 
ATOM     52  H   THR A   4      47.707  13.388  68.135  0.00  0.00    +0.150 HD
ATOM     53  O   ASP A   3      45.616  12.242  66.039  0.00  0.00    -0.273 OA
BRANCH  50  54
ATOM     54  CA  ASP A   3      47.597  13.503  65.534  0.00  0.00    +0.160 C 
BRANCH  54  57
ATOM     55  C   LEU A   2      49.754  12.618  64.985  0.00  0.00    +0.241 C 
ATOM     56  O   LEU A   2      50.277  13.326  65.856  0.00  0.00    -0.273 OA
ATOM     57  N   ASP A   3      48.456  12.601  64.794  0.00  0.00    -0.297 N 
ATOM     58  H   ASP A   3      48.042  11.937  64.109  0.00  0.00    +0.150 HD
BRANCH  55  59
ATOM     59  CA  LEU A   2      50.577  11.718  64.059  0.00  0.00    +0.149 C 
BRANCH  59  61
ATOM     60  C   LEU A   1      50.553  13.224  62.132  0.00  0.00    +0.238 C 
ATOM     61  N   LEU A   2      51.218  12.675  63.151  0.00  0.00    -0.297 N 
ATOM     62  H   LEU A   2      52.214  12.932  63.305  0.00  0.00    +0.150 HD
ATOM     63  O   LEU A   1      49.403  12.893  61.837  0.00  0.00    -0.274 OA
BRANCH  60  64
ATOM     64  CA  LEU A   1      51.269  14.289  61.292  0.00  0.00    +0.145 C 
BRANCH  64  65
ATOM     65  N   LEU A   1      51.252  13.952  59.869  0.00  0.00    -0.238 NA
ATOM     66  H   LEU A   1      50.455  14.318  59.310  0.00  0.00    +0.142 HD
ENDBRANCH  64  65
BRANCH  64  67
ATOM     67  CB  LEU A   1      50.479  15.601  61.458  0.00  0.00    +0.026 C 
BRANCH  67  68
ATOM     68  CG  LEU A   1      50.781  16.801  62.358  0.00  0.00    +0.002 C 
ATOM     69  CD2 LEU A   1      51.604  16.428  63.536  0.00  0.00    +0.000 C 
ATOM     70  CD1 LEU A   1      49.473  17.374  62.837  0.00  0.00    +0.000 C 
ENDBRANCH  67  68
ENDBRANCH  64  67
ENDBRANCH  60  64
ENDBRANCH  59  61
BRANCH  59  71
ATOM     71  CB  LEU A   2      51.618  10.905  64.840  0.00  0.00    +0.029 C 
BRANCH  71  72
ATOM     72  CG  LEU A   2      52.208   9.699  64.089  0.00  0.00    +0.002 C 
ATOM     73  CD2 LEU A   2      53.714   9.823  64.030  0.00  0.00    +0.000 C 
ATOM     74  CD1 LEU A   2      51.611   9.560  62.682  0.00  0.00    +0.000 C 
ENDBRANCH  71  72
ENDBRANCH  59  71
ENDBRANCH  55  59
ENDBRANCH  54  57
BRANCH  54  75
ATOM     75  CB  ASP A   3      46.878  14.303  64.463  0.00  0.00    +0.143 C 
BRANCH  75  76
ATOM     76  CG  ASP A   3      46.087  15.417  65.000  0.00  0.00    +0.367 C 
ATOM     77  OD2 ASP A   3      46.039  15.595  66.224  0.00  0.00    -0.246 OA
ATOM     78  OD1 ASP A   3      45.478  16.111  64.173  0.00  0.00    -0.246 OA
ENDBRANCH  75  76
ENDBRANCH  54  75
ENDBRANCH  50  54
ENDBRANCH  49  51
BRANCH  49  79
ATOM     79  CB  THR A   4      46.661  11.917  70.064  0.00  0.00    +0.137 C 
ATOM     80  CG2 THR A   4      47.946  11.158  69.869  0.00  0.00    +0.034 C 
BRANCH  79  81
ATOM     81  OG1 THR A   4      46.971  13.154  70.693  0.00  0.00    -0.382 OA
ATOM     82  HG1 THR A   4      46.137  13.666  70.840  0.00  0.00    +0.210 HD
ENDBRANCH  79  81
ENDBRANCH  49  79
ENDBRANCH  45  49
ENDBRANCH  44  47
ENDBRANCH   1  44
TORSDOF 35
REMARK  Name = ../refined-set-2016/1a9m/1a9m_pocket.pdb
REMARK  211 active torsions:
REMARK  status: ('A' for Active; 'I' for Inactive)
REMARK    1  A    between atoms: _1  and  _3
REMARK    2  A    between atoms: _3  and  _4
REMARK    3  A    between atoms: _3  and  _6
REMARK    4  A    between atoms: _6  and  _7
REMARK    5  A    between atoms: _7  and  _8
REMARK    6  A    between atoms: _8  and  _9
REMARK    7  A    between atoms: _18  and  _20
REMARK    8  A    between atoms: _20  and  _21
REMARK    9  A    between atoms: _20  and  _23
REMARK   10  A    between atoms: _23  and  _24
REMARK   11  A    between atoms: _27  and  _29
REMARK   12  A    between atoms: _29  and  _30
REMARK   13  A    between atoms: _29  and  _32
REMARK   14  A    between atoms: _32  and  _33
REMARK   15  A    between atoms: _36  and  _38
REMARK   16  A    between atoms: _38  and  _39
REMARK   17  A    between atoms: _38  and  _41
REMARK   18  A    between atoms: _41  and  _42
REMARK   19  A    between atoms: _45  and  _47
REMARK   20  A    between atoms: _47  and  _48
REMARK   21  A    between atoms: _47  and  _50
REMARK   22  A    between atoms: _50  and  _51
REMARK   23  A    between atoms: _54  and  _56
REMARK   24  A    between atoms: _56  and  _57
REMARK   25  A    between atoms: _56  and  _59
REMARK   26  A    between atoms: _59  and  _60
REMARK   27  A    between atoms: _63  and  _65
REMARK   28  A    between atoms: _65  and  _66
REMARK   29  A    between atoms: _68  and  _70
REMARK   30  A    between atoms: _70  and  _71
REMARK   31  A    between atoms: _74  and  _76
REMARK   32  A    between atoms: _76  and  _77
REMARK   33  A    between atoms: _76  and  _79
REMARK   34  A    between atoms: _79  and  _80
REMARK   35  A    between atoms: _83  and  _85
REMARK   36  A    between atoms: _85  and  _86
REMARK   37  A    between atoms: _85  and  _88
REMARK   38  A    between atoms: _88  and  _89
REMARK   39  A    between atoms: _92  and  _94
REMARK   40  A    between atoms: _94  and  _95
REMARK   41  A    between atoms: _94  and  _97
REMARK   42  A    between atoms: _97  and  _98
REMARK   43  A    between atoms: _101  and  _103
REMARK   44  A    between atoms: _103  and  _104
REMARK   45  A    between atoms: _103  and  _106
REMARK   46  A    between atoms: _109  and  _111
REMARK   47  A    between atoms: _111  and  _112
REMARK   48  A    between atoms: _111  and  _114
REMARK   49  A    between atoms: _114  and  _115
REMARK   50  A    between atoms: _118  and  _120
REMARK   51  A    between atoms: _120  and  _121
REMARK   52  A    between atoms: _120  and  _123
REMARK   53  A    between atoms: _123  and  _124
REMARK   54  A    between atoms: _129  and  _131
REMARK   55  A    between atoms: _131  and  _132
REMARK   56  A    between atoms: _134  and  _136
REMARK   57  A    between atoms: _136  and  _137
REMARK   58  A    between atoms: _136  and  _139
REMARK   59  A    between atoms: _139  and  _140
REMARK   60  A    between atoms: _143  and  _145
REMARK   61  A    between atoms: _145  and  _146
REMARK   62  A    between atoms: _148  and  _150
REMARK   63  A    between atoms: _150  and  _151
REMARK   64  A    between atoms: _153  and  _155
REMARK   65  A    between atoms: _155  and  _156
REMARK   66  A    between atoms: _155  and  _158
REMARK   67  A    between atoms: _158  and  _159
REMARK   68  A    between atoms: _163  and  _164
REMARK   69  A    between atoms: _169  and  _171
REMARK   70  A    between atoms: _171  and  _172
REMARK   71  A    between atoms: _171  and  _174
REMARK   72  A    between atoms: _174  and  _175
REMARK   73  A    between atoms: _179  and  _180
REMARK   74  A    between atoms: _185  and  _187
REMARK   75  A    between atoms: _187  and  _188
REMARK   76  A    between atoms: _187  and  _190
REMARK   77  A    between atoms: _193  and  _195
REMARK   78  A    between atoms: _195  and  _196
REMARK   79  A    between atoms: _195  and  _198
REMARK   80  A    between atoms: _198  and  _199
REMARK   81  A    between atoms: _204  and  _206
REMARK   82  A    between atoms: _206  and  _207
REMARK   83  A    between atoms: _206  and  _209
REMARK   84  A    between atoms: _209  and  _210
REMARK   85  A    between atoms: _213  and  _215
REMARK   86  A    between atoms: _215  and  _216
REMARK   87  A    between atoms: _218  and  _220
REMARK   88  A    between atoms: _220  and  _221
REMARK   89  A    between atoms: _220  and  _223
REMARK   90  A    between atoms: _223  and  _224
REMARK   91  A    between atoms: _224  and  _225
REMARK   92  A    between atoms: _225  and  _226
REMARK   93  A    between atoms: _235  and  _237
REMARK   94  A    between atoms: _237  and  _238
REMARK   95  A    between atoms: _237  and  _240
REMARK   96  A    between atoms: _240  and  _241
REMARK   97  A    between atoms: _241  and  _242
REMARK   98  A    between atoms: _242  and  _243
REMARK   99  A    between atoms: _252  and  _254
REMARK  100  A    between atoms: _254  and  _255
REMARK  101  A    between atoms: _254  and  _257
REMARK  102  A    between atoms: _257  and  _258
REMARK  103  A    between atoms: _261  and  _263
REMARK  104  A    between atoms: _263  and  _264
REMARK  105  A    between atoms: _263  and  _266
REMARK  106  A    between atoms: _266  and  _267
REMARK  107  A    between atoms: _270  and  _272
REMARK  108  A    between atoms: _272  and  _273
REMARK  109  A    between atoms: _272  and  _275
REMARK  110  A    between atoms: _275  and  _276
REMARK  111  A    between atoms: _279  and  _281
REMARK  112  A    between atoms: _281  and  _282
REMARK  113  A    between atoms: _281  and  _284
REMARK  114  A    between atoms: _284  and  _285
REMARK  115  A    between atoms: _288  and  _290
REMARK  116  A    between atoms: _290  and  _291
REMARK  117  A    between atoms: _293  and  _295
REMARK  118  A    between atoms: _295  and  _296
REMARK  119  A    between atoms: _299  and  _301
REMARK  120  A    between atoms: _301  and  _302
REMARK  121  A    between atoms: _301  and  _304
REMARK  122  A    between atoms: _304  and  _305
REMARK  123  A    between atoms: _308  and  _310
REMARK  124  A    between atoms: _310  and  _311
REMARK  125  A    between atoms: _310  and  _313
REMARK  126  A    between atoms: _313  and  _314
REMARK  127  A    between atoms: _317  and  _319
REMARK  128  A    between atoms: _319  and  _320
REMARK  129  A    between atoms: _319  and  _322
REMARK  130  A    between atoms: _322  and  _323
REMARK  131  A    between atoms: _326  and  _328
REMARK  132  A    between atoms: _328  and  _329
REMARK  133  A    between atoms: _328  and  _331
REMARK  134  A    between atoms: _334  and  _336
REMARK  135  A    between atoms: _336  and  _337
REMARK  136  A    between atoms: _336  and  _339
REMARK  137  A    between atoms: _339  and  _340
REMARK  138  A    between atoms: _340  and  _341
REMARK  139  A    between atoms: _341  and  _342
REMARK  140  A    between atoms: _342  and  _343
REMARK  141  A    between atoms: _347  and  _349
REMARK  142  A    between atoms: _349  and  _350
REMARK  143  A    between atoms: _349  and  _352
REMARK  144  A    between atoms: _352  and  _353
REMARK  145  A    between atoms: _353  and  _354
REMARK  146  A    between atoms: _356  and  _358
REMARK  147  A    between atoms: _358  and  _359
REMARK  148  A    between atoms: _358  and  _361
REMARK  149  A    between atoms: _361  and  _362
REMARK  150  A    between atoms: _365  and  _367
REMARK  151  A    between atoms: _367  and  _368
REMARK  152  A    between atoms: _367  and  _370
REMARK  153  A    between atoms: _370  and  _371
REMARK  154  A    between atoms: _376  and  _378
REMARK  155  A    between atoms: _378  and  _379
REMARK  156  A    between atoms: _381  and  _383
REMARK  157  A    between atoms: _383  and  _384
REMARK  158  A    between atoms: _383  and  _386
REMARK  159  A    between atoms: _386  and  _387
REMARK  160  A    between atoms: _390  and  _392
REMARK  161  A    between atoms: _392  and  _393
REMARK  162  A    between atoms: _395  and  _397
REMARK  163  A    between atoms: _397  and  _398
REMARK  164  A    between atoms: _400  and  _402
REMARK  165  A    between atoms: _402  and  _403
REMARK  166  A    between atoms: _402  and  _405
REMARK  167  A    between atoms: _405  and  _406
REMARK  168  A    between atoms: _412  and  _414
REMARK  169  A    between atoms: _414  and  _415
REMARK  170  A    between atoms: _414  and  _417
REMARK  171  A    between atoms: _417  and  _418
REMARK  172  A    between atoms: _421  and  _423
REMARK  173  A    between atoms: _423  and  _424
REMARK  174  A    between atoms: _423  and  _426
REMARK  175  A    between atoms: _429  and  _431
REMARK  176  A    between atoms: _431  and  _432
REMARK  177  A    between atoms: _431  and  _434
REMARK  178  A    between atoms: _434  and  _435
REMARK  179  A    between atoms: _439  and  _440
REMARK  180  A    between atoms: _445  and  _447
REMARK  181  A    between atoms: _447  and  _448
REMARK  182  A    between atoms: _447  and  _450
REMARK  183  A    between atoms: _450  and  _451
REMARK  184  A    between atoms: _455  and  _456
REMARK  185  A    between atoms: _461  and  _463
REMARK  186  A    between atoms: _463  and  _464
REMARK  187  A    between atoms: _463  and  _466
REMARK  188  A    between atoms: _469  and  _471
REMARK  189  A    between atoms: _471  and  _472
REMARK  190  A    between atoms: _471  and  _474
REMARK  191  A    between atoms: _474  and  _475
REMARK  192  A    between atoms: _480  and  _482
REMARK  193  A    between atoms: _482  and  _483
REMARK  194  A    between atoms: _482  and  _485
REMARK  195  A    between atoms: _485  and  _486
REMARK  196  A    between atoms: _489  and  _491
REMARK  197  A    between atoms: _491  and  _492
REMARK  198  A    between atoms: _491  and  _494
REMARK  199  A    between atoms: _494  and  _495
REMARK  200  A    between atoms: _498  and  _500
REMARK  201  A    between atoms: _500  and  _501
REMARK  202  A    between atoms: _503  and  _505
REMARK  203  A    between atoms: _505  and  _506
REMARK  204  A    between atoms: _505  and  _508
REMARK  205  A    between atoms: _508  and  _509
REMARK  206  A    between atoms: _509  and  _510
REMARK  207  A    between atoms: _510  and  _511
REMARK  208  A    between atoms: _520  and  _522
REMARK  209  A    between atoms: _522  and  _523
REMARK  210  A    between atoms: _522  and  _525
REMARK  211  A    between atoms: _525  and  _526
REMARK                            x       y       z     vdW  Elec       q    Type
REMARK                         _______ _______ _______ _____ _____    ______ ____
ROOT
ATOM      1  C   HIS A   4      36.383  20.115  62.806  0.00  0.00    +0.241 C 
ATOM      2  O   HIS A   4      36.720  19.091  63.396  0.00  0.00    -0.273 OA
ATOM      3  N   GLY A   5      36.999  21.270  62.929  0.00  0.00    -0.295 N 
ATOM      4  H   GLY A   5      36.668  22.091  62.384  0.00  0.00    +0.150 HD
ENDROOT
BRANCH   1   5
ATOM      5  CA  HIS A   4      35.207  20.143  61.866  0.00  0.00    +0.155 C 
BRANCH   5   7
ATOM      6  C   ILE A   3      34.365  18.700  60.153  0.00  0.00    +0.241 C 
ATOM      7  N   HIS A   4      34.805  18.830  61.391  0.00  0.00    -0.297 N 
ATOM      8  H   HIS A   4      34.863  18.003  62.019  0.00  0.00    +0.150 HD
ATOM      9  O   ILE A   3      34.289  19.647  59.378  0.00  0.00    -0.273 OA
BRANCH   6  10
ATOM     10  CA  ILE A   3      33.996  17.304  59.714  0.00  0.00    +0.149 C 
BRANCH  10  13
ATOM     11  C   MET A   2      32.273  16.589  58.120  0.00  0.00    +0.241 C 
ATOM     12  O   MET A   2      31.811  15.725  58.880  0.00  0.00    -0.273 OA
ATOM     13  N   ILE A   3      33.295  17.379  58.432  0.00  0.00    -0.297 N 
ATOM     14  H   ILE A   3      33.611  18.082  57.734  0.00  0.00    +0.150 HD
BRANCH  11  15
ATOM     15  CA  MET A   2      31.704  16.782  56.729  0.00  0.00    +0.149 C 
BRANCH  15  17
ATOM     16  C   LYS A   1      31.653  15.089  55.029  0.00  0.00    +0.238 C 
ATOM     17  N   MET A   2      31.317  15.485  56.241  0.00  0.00    -0.297 N 
ATOM     18  H   MET A   2      30.764  14.851  56.853  0.00  0.00    +0.150 HD
ATOM     19  O   LYS A   1      32.249  15.809  54.214  0.00  0.00    -0.274 OA
BRANCH  16  20
ATOM     20  CA  LYS A   1      31.181  13.701  54.670  0.00  0.00    +0.145 C 
BRANCH  20  21
ATOM     21  N   LYS A   1      31.344  13.593  53.257  0.00  0.00    -0.238 NA
ATOM     22  H   LYS A   1      32.122  14.112  52.801  0.00  0.00    +0.142 HD
ENDBRANCH  20  21
BRANCH  20  23
ATOM     23  CB  LYS A   1      32.031  12.654  55.391  0.00  0.00    +0.026 C 
BRANCH  23  24
ATOM     24  CG  LYS A   1      31.464  12.288  56.752  0.00  0.00    -0.000 C 
BRANCH  24  25
ATOM     25  CD  LYS A   1      32.541  11.935  57.762  0.00  0.00    -0.024 C 
BRANCH  25  26
ATOM     26  CE  LYS A   1      32.009  12.116  59.184  0.00  0.00    -0.086 C 
BRANCH  26  27
ATOM     27  NZ  LYS A   1      33.023  11.838  60.252  0.00  0.00    +0.380 N 
ATOM     28  HZ1 LYS A   1      32.589  11.982  61.186  0.00  0.00    -0.089 HD
ATOM     29  HZ2 LYS A   1      33.352  10.855  60.169  0.00  0.00    -0.089 HD
ATOM     30  HZ3 LYS A   1      33.829  12.485  60.140  0.00  0.00    -0.089 HD
ENDBRANCH  26  27
ENDBRANCH  25  26
ENDBRANCH  24  25
ENDBRANCH  23  24
ENDBRANCH  20  23
ENDBRANCH  16  20
ENDBRANCH  15  17
BRANCH  15  31
ATOM     31  CB  MET A   2      30.492  17.683  56.763  0.00  0.00    +0.041 C 
BRANCH  31  32
ATOM     32  CG  MET A   2      30.821  19.096  56.511  0.00  0.00    +0.060 C 
BRANCH  32  33
ATOM     33  SD  MET A   2      29.311  19.904  56.633  0.00  0.00    -0.139 S 
ATOM     34  CE  MET A   2      29.167  20.575  54.998  0.00  0.00    +0.069 C 
ENDBRANCH  32  33
ENDBRANCH  31  32
ENDBRANCH  15  31
ENDBRANCH  11  15
ENDBRANCH  10  13
BRANCH  10  35
ATOM     35  CB  ILE A   3      35.324  16.504  59.578  0.00  0.00    +0.027 C 
ATOM     36  CG2 ILE A   3      35.059  15.027  59.611  0.00  0.00    +0.002 C 
BRANCH  35  37
ATOM     37  CG1 ILE A   3      36.015  16.855  58.271  0.00  0.00    +0.002 C 
ATOM     38  CD1 ILE A   3      37.478  16.623  58.293  0.00  0.00    +0.000 C 
ENDBRANCH  35  37
ENDBRANCH  10  35
ENDBRANCH   6  10
ENDBRANCH   5   7
BRANCH   5  39
ATOM     39  CB  HIS A   4      34.058  20.856  62.557  0.00  0.00    +0.076 C 
BRANCH  39  40
ATOM     40  CG  HIS A   4      33.577  20.168  63.784  0.00  0.00    +0.082 A 
ATOM     41  CD2 HIS A   4      33.862  20.373  65.095  0.00  0.00    +0.115 A 
ATOM     42  NE2 HIS A   4      33.095  19.489  65.817  0.00  0.00    -0.221 NA
ATOM     43  CE1 HIS A   4      32.373  18.763  64.980  0.00  0.00    +0.199 A 
ATOM     44  ND1 HIS A   4      32.649  19.151  63.744  0.00  0.00    -0.227 NA
ENDBRANCH  39  40
ENDBRANCH   5  39
ENDBRANCH   1   5
BRANCH   3  45
ATOM     45  CA  GLY A   5      38.121  21.407  63.807  0.00  0.00    +0.176 C 
BRANCH  45  46
ATOM     46  C   GLY A   5      38.000  22.784  64.397  0.00  0.00    +0.243 C 
ATOM     47  N   ILE A   6      39.143  23.342  64.778  0.00  0.00    -0.297 N 
ATOM     48  H   ILE A   6      40.024  22.803  64.656  0.00  0.00    +0.150 HD
ATOM     49  O   GLY A   5      36.897  23.330  64.495  0.00  0.00    -0.273 OA
BRANCH  47  50
ATOM     50  CA  ILE A   6      39.217  24.664  65.354  0.00  0.00    +0.149 C 
BRANCH  50  51
ATOM     51  C   ILE A   6      38.726  25.727  64.379  0.00  0.00    +0.241 C 
ATOM     52  O   ILE A   6      37.987  26.626  64.762  0.00  0.00    -0.273 OA
ATOM     53  N   GLY A   7      39.073  25.605  63.110  0.00  0.00    -0.295 N 
ATOM     54  H   GLY A   7      39.673  24.818  62.789  0.00  0.00    +0.150 HD
BRANCH  53  55
ATOM     55  CA  GLY A   7      38.588  26.607  62.181  0.00  0.00    +0.176 C 
BRANCH  55  56
ATOM     56  C   GLY A   7      37.096  26.563  61.868  0.00  0.00    +0.243 C 
ATOM     57  N   GLY A   8      36.531  25.362  61.820  0.00  0.00    -0.295 N 
ATOM     58  H   GLY A   8      37.108  24.521  62.023  0.00  0.00    +0.150 HD
ATOM     59  O   GLY A   7      36.474  27.598  61.657  0.00  0.00    -0.273 OA
BRANCH  57  60
ATOM     60  CA  GLY A   8      35.130  25.197  61.492  0.00  0.00    +0.176 C 
BRANCH  60  61
ATOM     61  C   GLY A   8      34.913  23.892  60.745  0.00  0.00    +0.243 C 
ATOM     62  O   GLY A   8      35.682  22.945  60.929  0.00  0.00    -0.273 OA
ATOM     63  N   PHE A   9      33.925  23.866  59.849  0.00  0.00    -0.297 N 
ATOM     64  H   PHE A   9      33.386  24.740  59.684  0.00  0.00    +0.150 HD
BRANCH  63  65
ATOM     65  CA  PHE A   9      33.557  22.659  59.078  0.00  0.00    +0.153 C 
BRANCH  65  66
ATOM     66  C   PHE A   9      34.105  22.563  57.645  0.00  0.00    +0.241 C 
ATOM     67  N   ILE A  10      34.628  21.401  57.251  0.00  0.00    -0.298 N 
ATOM     68  H   ILE A  10      34.720  20.620  57.931  0.00  0.00    +0.150 HD
ATOM     69  O   PHE A   9      34.113  23.556  56.926  0.00  0.00    -0.273 OA
BRANCH  67  70
ATOM     70  CA  ILE A  10      35.075  21.216  55.863  0.00  0.00    +0.137 C 
BRANCH  70  71
ATOM     71  CB  ILE A  10      36.635  21.155  55.629  0.00  0.00    +0.026 C 
ATOM     72  CG2 ILE A  10      37.288  22.458  56.026  0.00  0.00    +0.002 C 
BRANCH  71  73
ATOM     73  CG1 ILE A  10      37.273  19.950  56.316  0.00  0.00    +0.002 C 
ATOM     74  CD1 ILE A  10      38.650  19.610  55.769  0.00  0.00    +0.000 C 
ENDBRANCH  71  73
ENDBRANCH  70  71
BRANCH  70  75
ATOM     75  C   ILE A  10      34.407  19.975  55.269  0.00  0.00    +0.227 C 
ATOM     76  O   ILE A  10      34.015  19.046  55.987  0.00  0.00    -0.286 OA
ENDBRANCH  70  75
ENDBRANCH  67  70
ENDBRANCH  65  66
BRANCH  65  77
ATOM     77  CB  PHE A   9      32.016  22.520  59.025  0.00  0.00    +0.055 C 
BRANCH  77  78
ATOM     78  CG  PHE A   9      31.372  22.288  60.373  0.00  0.00    -0.020 A 
ATOM     79  CD2 PHE A   9      31.103  23.350  61.230  0.00  0.00    -0.004 A 
ATOM     80  CE2 PHE A   9      30.564  23.132  62.503  0.00  0.00    -0.000 A 
ATOM     81  CZ  PHE A   9      30.286  21.844  62.931  0.00  0.00    -0.000 A 
ATOM     82  CE1 PHE A   9      30.543  20.771  62.085  0.00  0.00    -0.000 A 
ATOM     83  CD1 PHE A   9      31.083  20.996  60.810  0.00  0.00    -0.004 A 
ENDBRANCH  77  78
ENDBRANCH  65  77
ENDBRANCH  63  65
ENDBRANCH  60  61
ENDBRANCH  57  60
ENDBRANCH  55  56
ENDBRANCH  53  55
ENDBRANCH  50  51
BRANCH  50  84
ATOM     84  CB  ILE A   6      40.630  24.930  65.892  0.00  0.00    +0.027 C 
ATOM     85  CG2 ILE A   6      41.151  26.304  65.492  0.00  0.00    +0.002 C 
BRANCH  84  86
ATOM     86  CG1 ILE A   6      40.606  24.720  67.392  0.00  0.00    +0.002 C 
ATOM     87  CD1 ILE A   6      41.925  24.827  68.030  0.00  0.00    +0.000 C 
ENDBRANCH  84  86
ENDBRANCH  50  84
ENDBRANCH  47  50
ENDBRANCH  45  46
ENDBRANCH   3  45
TORSDOF 38
REMARK  Name = ../refined-set-2016/1a9m/1a9m_pocket.pdb
REMARK  211 active torsions:
REMARK  status: ('A' for Active; 'I' for Inactive)
REMARK    1  A    between atoms: _1  and  _3
REMARK    2  A    between atoms: _3  and  _4
REMARK    3  A    between atoms: _3  and  _6
REMARK    4  A    between atoms: _6  and  _7
REMARK    5  A    between atoms: _7  and  _8
REMARK    6  A    between atoms: _8  and  _9
REMARK    7  A    between atoms: _18  and  _20
REMARK    8  A    between atoms: _20  and  _21
REMARK    9  A    between atoms: _20  and  _23
REMARK   10  A    between atoms: _23  and  _24
REMARK   11  A    between atoms: _27  and  _29
REMARK   12  A    between atoms: _29  and  _30
REMARK   13  A    between atoms: _29  and  _32
REMARK   14  A    between atoms: _32  and  _33
REMARK   15  A    between atoms: _36  and  _38
REMARK   16  A    between atoms: _38  and  _39
REMARK   17  A    between atoms: _38  and  _41
REMARK   18  A    between atoms: _41  and  _42
REMARK   19  A    between atoms: _45  and  _47
REMARK   20  A    between atoms: _47  and  _48
REMARK   21  A    between atoms: _47  and  _50
REMARK   22  A    between atoms: _50  and  _51
REMARK   23  A    between atoms: _54  and  _56
REMARK   24  A    between atoms: _56  and  _57
REMARK   25  A    between atoms: _56  and  _59
REMARK   26  A    between atoms: _59  and  _60
REMARK   27  A    between atoms: _63  and  _65
REMARK   28  A    between atoms: _65  and  _66
REMARK   29  A    between atoms: _68  and  _70
REMARK   30  A    between atoms: _70  and  _71
REMARK   31  A    between atoms: _74  and  _76
REMARK   32  A    between atoms: _76  and  _77
REMARK   33  A    between atoms: _76  and  _79
REMARK   34  A    between atoms: _79  and  _80
REMARK   35  A    between atoms: _83  and  _85
REMARK   36  A    between atoms: _85  and  _86
REMARK   37  A    between atoms: _85  and  _88
REMARK   38  A    between atoms: _88  and  _89
REMARK   39  A    between atoms: _92  and  _94
REMARK   40  A    between atoms: _94  and  _95
REMARK   41  A    between atoms: _94  and  _97
REMARK   42  A    between atoms: _97  and  _98
REMARK   43  A    between atoms: _101  and  _103
REMARK   44  A    between atoms: _103  and  _104
REMARK   45  A    between atoms: _103  and  _106
REMARK   46  A    between atoms: _109  and  _111
REMARK   47  A    between atoms: _111  and  _112
REMARK   48  A    between atoms: _111  and  _114
REMARK   49  A    between atoms: _114  and  _115
REMARK   50  A    between atoms: _118  and  _120
REMARK   51  A    between atoms: _120  and  _121
REMARK   52  A    between atoms: _120  and  _123
REMARK   53  A    between atoms: _123  and  _124
REMARK   54  A    between atoms: _129  and  _131
REMARK   55  A    between atoms: _131  and  _132
REMARK   56  A    between atoms: _134  and  _136
REMARK   57  A    between atoms: _136  and  _137
REMARK   58  A    between atoms: _136  and  _139
REMARK   59  A    between atoms: _139  and  _140
REMARK   60  A    between atoms: _143  and  _145
REMARK   61  A    between atoms: _145  and  _146
REMARK   62  A    between atoms: _148  and  _150
REMARK   63  A    between atoms: _150  and  _151
REMARK   64  A    between atoms: _153  and  _155
REMARK   65  A    between atoms: _155  and  _156
REMARK   66  A    between atoms: _155  and  _158
REMARK   67  A    between atoms: _158  and  _159
REMARK   68  A    between atoms: _163  and  _164
REMARK   69  A    between atoms: _169  and  _171
REMARK   70  A    between atoms: _171  and  _172
REMARK   71  A    between atoms: _171  and  _174
REMARK   72  A    between atoms: _174  and  _175
REMARK   73  A    between atoms: _179  and  _180
REMARK   74  A    between atoms: _185  and  _187
REMARK   75  A    between atoms: _187  and  _188
REMARK   76  A    between atoms: _187  and  _190
REMARK   77  A    between atoms: _193  and  _195
REMARK   78  A    between atoms: _195  and  _196
REMARK   79  A    between atoms: _195  and  _198
REMARK   80  A    between atoms: _198  and  _199
REMARK   81  A    between atoms: _204  and  _206
REMARK   82  A    between atoms: _206  and  _207
REMARK   83  A    between atoms: _206  and  _209
REMARK   84  A    between atoms: _209  and  _210
REMARK   85  A    between atoms: _213  and  _215
REMARK   86  A    between atoms: _215  and  _216
REMARK   87  A    between atoms: _218  and  _220
REMARK   88  A    between atoms: _220  and  _221
REMARK   89  A    between atoms: _220  and  _223
REMARK   90  A    between atoms: _223  and  _224
REMARK   91  A    between atoms: _224  and  _225
REMARK   92  A    between atoms: _225  and  _226
REMARK   93  A    between atoms: _235  and  _237
REMARK   94  A    between atoms: _237  and  _238
REMARK   95  A    between atoms: _237  and  _240
REMARK   96  A    between atoms: _240  and  _241
REMARK   97  A    between atoms: _241  and  _242
REMARK   98  A    between atoms: _242  and  _243
REMARK   99  A    between atoms: _252  and  _254
REMARK  100  A    between atoms: _254  and  _255
REMARK  101  A    between atoms: _254  and  _257
REMARK  102  A    between atoms: _257  and  _258
REMARK  103  A    between atoms: _261  and  _263
REMARK  104  A    between atoms: _263  and  _264
REMARK  105  A    between atoms: _263  and  _266
REMARK  106  A    between atoms: _266  and  _267
REMARK  107  A    between atoms: _270  and  _272
REMARK  108  A    between atoms: _272  and  _273
REMARK  109  A    between atoms: _272  and  _275
REMARK  110  A    between atoms: _275  and  _276
REMARK  111  A    between atoms: _279  and  _281
REMARK  112  A    between atoms: _281  and  _282
REMARK  113  A    between atoms: _281  and  _284
REMARK  114  A    between atoms: _284  and  _285
REMARK  115  A    between atoms: _288  and  _290
REMARK  116  A    between atoms: _290  and  _291
REMARK  117  A    between atoms: _293  and  _295
REMARK  118  A    between atoms: _295  and  _296
REMARK  119  A    between atoms: _299  and  _301
REMARK  120  A    between atoms: _301  and  _302
REMARK  121  A    between atoms: _301  and  _304
REMARK  122  A    between atoms: _304  and  _305
REMARK  123  A    between atoms: _308  and  _310
REMARK  124  A    between atoms: _310  and  _311
REMARK  125  A    between atoms: _310  and  _313
REMARK  126  A    between atoms: _313  and  _314
REMARK  127  A    between atoms: _317  and  _319
REMARK  128  A    between atoms: _319  and  _320
REMARK  129  A    between atoms: _319  and  _322
REMARK  130  A    between atoms: _322  and  _323
REMARK  131  A    between atoms: _326  and  _328
REMARK  132  A    between atoms: _328  and  _329
REMARK  133  A    between atoms: _328  and  _331
REMARK  134  A    between atoms: _334  and  _336
REMARK  135  A    between atoms: _336  and  _337
REMARK  136  A    between atoms: _336  and  _339
REMARK  137  A    between atoms: _339  and  _340
REMARK  138  A    between atoms: _340  and  _341
REMARK  139  A    between atoms: _341  and  _342
REMARK  140  A    between atoms: _342  and  _343
REMARK  141  A    between atoms: _347  and  _349
REMARK  142  A    between atoms: _349  and  _350
REMARK  143  A    between atoms: _349  and  _352
REMARK  144  A    between atoms: _352  and  _353
REMARK  145  A    between atoms: _353  and  _354
REMARK  146  A    between atoms: _356  and  _358
REMARK  147  A    between atoms: _358  and  _359
REMARK  148  A    between atoms: _358  and  _361
REMARK  149  A    between atoms: _361  and  _362
REMARK  150  A    between atoms: _365  and  _367
REMARK  151  A    between atoms: _367  and  _368
REMARK  152  A    between atoms: _367  and  _370
REMARK  153  A    between atoms: _370  and  _371
REMARK  154  A    between atoms: _376  and  _378
REMARK  155  A    between atoms: _378  and  _379
REMARK  156  A    between atoms: _381  and  _383
REMARK  157  A    between atoms: _383  and  _384
REMARK  158  A    between atoms: _383  and  _386
REMARK  159  A    between atoms: _386  and  _387
REMARK  160  A    between atoms: _390  and  _392
REMARK  161  A    between atoms: _392  and  _393
REMARK  162  A    between atoms: _395  and  _397
REMARK  163  A    between atoms: _397  and  _398
REMARK  164  A    between atoms: _400  and  _402
REMARK  165  A    between atoms: _402  and  _403
REMARK  166  A    between atoms: _402  and  _405
REMARK  167  A    between atoms: _405  and  _406
REMARK  168  A    between atoms: _412  and  _414
REMARK  169  A    between atoms: _414  and  _415
REMARK  170  A    between atoms: _414  and  _417
REMARK  171  A    between atoms: _417  and  _418
REMARK  172  A    between atoms: _421  and  _423
REMARK  173  A    between atoms: _423  and  _424
REMARK  174  A    between atoms: _423  and  _426
REMARK  175  A    between atoms: _429  and  _431
REMARK  176  A    between atoms: _431  and  _432
REMARK  177  A    between atoms: _431  and  _434
REMARK  178  A    between atoms: _434  and  _435
REMARK  179  A    between atoms: _439  and  _440
REMARK  180  A    between atoms: _445  and  _447
REMARK  181  A    between atoms: _447  and  _448
REMARK  182  A    between atoms: _447  and  _450
REMARK  183  A    between atoms: _450  and  _451
REMARK  184  A    between atoms: _455  and  _456
REMARK  185  A    between atoms: _461  and  _463
REMARK  186  A    between atoms: _463  and  _464
REMARK  187  A    between atoms: _463  and  _466
REMARK  188  A    between atoms: _469  and  _471
REMARK  189  A    between atoms: _471  and  _472
REMARK  190  A    between atoms: _471  and  _474
REMARK  191  A    between atoms: _474  and  _475
REMARK  192  A    between atoms: _480  and  _482
REMARK  193  A    between atoms: _482  and  _483
REMARK  194  A    between atoms: _482  and  _485
REMARK  195  A    between atoms: _485  and  _486
REMARK  196  A    between atoms: _489  and  _491
REMARK  197  A    between atoms: _491  and  _492
REMARK  198  A    between atoms: _491  and  _494
REMARK  199  A    between atoms: _494  and  _495
REMARK  200  A    between atoms: _498  and  _500
REMARK  201  A    between atoms: _500  and  _501
REMARK  202  A    between atoms: _503  and  _505
REMARK  203  A    between atoms: _505  and  _506
REMARK  204  A    between atoms: _505  and  _508
REMARK  205  A    between atoms: _508  and  _509
REMARK  206  A    between atoms: _509  and  _510
REMARK  207  A    between atoms: _510  and  _511
REMARK  208  A    between atoms: _520  and  _522
REMARK  209  A    between atoms: _522  and  _523
REMARK  210  A    between atoms: _522  and  _525
REMARK  211  A    between atoms: _525  and  _526
REMARK                            x       y       z     vdW  Elec       q    Type
REMARK                         _______ _______ _______ _____ _____    ______ ____
ROOT
ATOM      1  CA  VAL A   1      35.690  15.886  52.581  0.00  0.00    +0.133 C 
ENDROOT
BRANCH   1   2
ATOM      2  CB  VAL A   1      36.542  15.423  53.812  0.00  0.00    +0.023 C 
ATOM      3  CG2 VAL A   1      35.633  15.047  54.981  0.00  0.00    +0.002 C 
ATOM      4  CG1 VAL A   1      37.505  16.541  54.253  0.00  0.00    +0.002 C 
ENDBRANCH   1   2
BRANCH   1   5
ATOM      5  N   VAL A   1      34.634  16.790  53.006  0.00  0.00    -0.239 NA
ATOM      6  H   VAL A   1      33.826  16.421  53.547  0.00  0.00    +0.142 HD
ENDBRANCH   1   5
BRANCH   1   7
ATOM      7  C   VAL A   1      35.120  14.680  51.827  0.00  0.00    +0.224 C 
ATOM      8  O   VAL A   1      33.937  14.327  51.996  0.00  0.00    -0.287 OA
ENDBRANCH   1   7
TORSDOF 3
REMARK  Name = ../refined-set-2016/1a9m/1a9m_pocket.pdb
REMARK  211 active torsions:
REMARK  status: ('A' for Active; 'I' for Inactive)
REMARK    1  A    between atoms: _1  and  _3
REMARK    2  A    between atoms: _3  and  _4
REMARK    3  A    between atoms: _3  and  _6
REMARK    4  A    between atoms: _6  and  _7
REMARK    5  A    between atoms: _7  and  _8
REMARK    6  A    between atoms: _8  and  _9
REMARK    7  A    between atoms: _18  and  _20
REMARK    8  A    between atoms: _20  and  _21
REMARK    9  A    between atoms: _20  and  _23
REMARK   10  A    between atoms: _23  and  _24
REMARK   11  A    between atoms: _27  and  _29
REMARK   12  A    between atoms: _29  and  _30
REMARK   13  A    between atoms: _29  and  _32
REMARK   14  A    between atoms: _32  and  _33
REMARK   15  A    between atoms: _36  and  _38
REMARK   16  A    between atoms: _38  and  _39
REMARK   17  A    between atoms: _38  and  _41
REMARK   18  A    between atoms: _41  and  _42
REMARK   19  A    between atoms: _45  and  _47
REMARK   20  A    between atoms: _47  and  _48
REMARK   21  A    between atoms: _47  and  _50
REMARK   22  A    between atoms: _50  and  _51
REMARK   23  A    between atoms: _54  and  _56
REMARK   24  A    between atoms: _56  and  _57
REMARK   25  A    between atoms: _56  and  _59
REMARK   26  A    between atoms: _59  and  _60
REMARK   27  A    between atoms: _63  and  _65
REMARK   28  A    between atoms: _65  and  _66
REMARK   29  A    between atoms: _68  and  _70
REMARK   30  A    between atoms: _70  and  _71
REMARK   31  A    between atoms: _74  and  _76
REMARK   32  A    between atoms: _76  and  _77
REMARK   33  A    between atoms: _76  and  _79
REMARK   34  A    between atoms: _79  and  _80
REMARK   35  A    between atoms: _83  and  _85
REMARK   36  A    between atoms: _85  and  _86
REMARK   37  A    between atoms: _85  and  _88
REMARK   38  A    between atoms: _88  and  _89
REMARK   39  A    between atoms: _92  and  _94
REMARK   40  A    between atoms: _94  and  _95
REMARK   41  A    between atoms: _94  and  _97
REMARK   42  A    between atoms: _97  and  _98
REMARK   43  A    between atoms: _101  and  _103
REMARK   44  A    between atoms: _103  and  _104
REMARK   45  A    between atoms: _103  and  _106
REMARK   46  A    between atoms: _109  and  _111
REMARK   47  A    between atoms: _111  and  _112
REMARK   48  A    between atoms: _111  and  _114
REMARK   49  A    between atoms: _114  and  _115
REMARK   50  A    between atoms: _118  and  _120
REMARK   51  A    between atoms: _120  and  _121
REMARK   52  A    between atoms: _120  and  _123
REMARK   53  A    between atoms: _123  and  _124
REMARK   54  A    between atoms: _129  and  _131
REMARK   55  A    between atoms: _131  and  _132
REMARK   56  A    between atoms: _134  and  _136
REMARK   57  A    between atoms: _136  and  _137
REMARK   58  A    between atoms: _136  and  _139
REMARK   59  A    between atoms: _139  and  _140
REMARK   60  A    between atoms: _143  and  _145
REMARK   61  A    between atoms: _145  and  _146
REMARK   62  A    between atoms: _148  and  _150
REMARK   63  A    between atoms: _150  and  _151
REMARK   64  A    between atoms: _153  and  _155
REMARK   65  A    between atoms: _155  and  _156
REMARK   66  A    between atoms: _155  and  _158
REMARK   67  A    between atoms: _158  and  _159
REMARK   68  A    between atoms: _163  and  _164
REMARK   69  A    between atoms: _169  and  _171
REMARK   70  A    between atoms: _171  and  _172
REMARK   71  A    between atoms: _171  and  _174
REMARK   72  A    between atoms: _174  and  _175
REMARK   73  A    between atoms: _179  and  _180
REMARK   74  A    between atoms: _185  and  _187
REMARK   75  A    between atoms: _187  and  _188
REMARK   76  A    between atoms: _187  and  _190
REMARK   77  A    between atoms: _193  and  _195
REMARK   78  A    between atoms: _195  and  _196
REMARK   79  A    between atoms: _195  and  _198
REMARK   80  A    between atoms: _198  and  _199
REMARK   81  A    between atoms: _204  and  _206
REMARK   82  A    between atoms: _206  and  _207
REMARK   83  A    between atoms: _206  and  _209
REMARK   84  A    between atoms: _209  and  _210
REMARK   85  A    between atoms: _213  and  _215
REMARK   86  A    between atoms: _215  and  _216
REMARK   87  A    between atoms: _218  and  _220
REMARK   88  A    between atoms: _220  and  _221
REMARK   89  A    between atoms: _220  and  _223
REMARK   90  A    between atoms: _223  and  _224
REMARK   91  A    between atoms: _224  and  _225
REMARK   92  A    between atoms: _225  and  _226
REMARK   93  A    between atoms: _235  and  _237
REMARK   94  A    between atoms: _237  and  _238
REMARK   95  A    between atoms: _237  and  _240
REMARK   96  A    between atoms: _240  and  _241
REMARK   97  A    between atoms: _241  and  _242
REMARK   98  A    between atoms: _242  and  _243
REMARK   99  A    between atoms: _252  and  _254
REMARK  100  A    between atoms: _254  and  _255
REMARK  101  A    between atoms: _254  and  _257
REMARK  102  A    between atoms: _257  and  _258
REMARK  103  A    between atoms: _261  and  _263
REMARK  104  A    between atoms: _263  and  _264
REMARK  105  A    between atoms: _263  and  _266
REMARK  106  A    between atoms: _266  and  _267
REMARK  107  A    between atoms: _270  and  _272
REMARK  108  A    between atoms: _272  and  _273
REMARK  109  A    between atoms: _272  and  _275
REMARK  110  A    between atoms: _275  and  _276
REMARK  111  A    between atoms: _279  and  _281
REMARK  112  A    between atoms: _281  and  _282
REMARK  113  A    between atoms: _281  and  _284
REMARK  114  A    between atoms: _284  and  _285
REMARK  115  A    between atoms: _288  and  _290
REMARK  116  A    between atoms: _290  and  _291
REMARK  117  A    between atoms: _293  and  _295
REMARK  118  A    between atoms: _295  and  _296
REMARK  119  A    between atoms: _299  and  _301
REMARK  120  A    between atoms: _301  and  _302
REMARK  121  A    between atoms: _301  and  _304
REMARK  122  A    between atoms: _304  and  _305
REMARK  123  A    between atoms: _308  and  _310
REMARK  124  A    between atoms: _310  and  _311
REMARK  125  A    between atoms: _310  and  _313
REMARK  126  A    between atoms: _313  and  _314
REMARK  127  A    between atoms: _317  and  _319
REMARK  128  A    between atoms: _319  and  _320
REMARK  129  A    between atoms: _319  and  _322
REMARK  130  A    between atoms: _322  and  _323
REMARK  131  A    between atoms: _326  and  _328
REMARK  132  A    between atoms: _328  and  _329
REMARK  133  A    between atoms: _328  and  _331
REMARK  134  A    between atoms: _334  and  _336
REMARK  135  A    between atoms: _336  and  _337
REMARK  136  A    between atoms: _336  and  _339
REMARK  137  A    between atoms: _339  and  _340
REMARK  138  A    between atoms: _340  and  _341
REMARK  139  A    between atoms: _341  and  _342
REMARK  140  A    between atoms: _342  and  _343
REMARK  141  A    between atoms: _347  and  _349
REMARK  142  A    between atoms: _349  and  _350
REMARK  143  A    between atoms: _349  and  _352
REMARK  144  A    between atoms: _352  and  _353
REMARK  145  A    between atoms: _353  and  _354
REMARK  146  A    between atoms: _356  and  _358
REMARK  147  A    between atoms: _358  and  _359
REMARK  148  A    between atoms: _358  and  _361
REMARK  149  A    between atoms: _361  and  _362
REMARK  150  A    between atoms: _365  and  _367
REMARK  151  A    between atoms: _367  and  _368
REMARK  152  A    between atoms: _367  and  _370
REMARK  153  A    between atoms: _370  and  _371
REMARK  154  A    between atoms: _376  and  _378
REMARK  155  A    between atoms: _378  and  _379
REMARK  156  A    between atoms: _381  and  _383
REMARK  157  A    between atoms: _383  and  _384
REMARK  158  A    between atoms: _383  and  _386
REMARK  159  A    between atoms: _386  and  _387
REMARK  160  A    between atoms: _390  and  _392
REMARK  161  A    between atoms: _392  and  _393
REMARK  162  A    between atoms: _395  and  _397
REMARK  163  A    between atoms: _397  and  _398
REMARK  164  A    between atoms: _400  and  _402
REMARK  165  A    between atoms: _402  and  _403
REMARK  166  A    between atoms: _402  and  _405
REMARK  167  A    between atoms: _405  and  _406
REMARK  168  A    between atoms: _412  and  _414
REMARK  169  A    between atoms: _414  and  _415
REMARK  170  A    between atoms: _414  and  _417
REMARK  171  A    between atoms: _417  and  _418
REMARK  172  A    between atoms: _421  and  _423
REMARK  173  A    between atoms: _423  and  _424
REMARK  174  A    between atoms: _423  and  _426
REMARK  175  A    between atoms: _429  and  _431
REMARK  176  A    between atoms: _431  and  _432
REMARK  177  A    between atoms: _431  and  _434
REMARK  178  A    between atoms: _434  and  _435
REMARK  179  A    between atoms: _439  and  _440
REMARK  180  A    between atoms: _445  and  _447
REMARK  181  A    between atoms: _447  and  _448
REMARK  182  A    between atoms: _447  and  _450
REMARK  183  A    between atoms: _450  and  _451
REMARK  184  A    between atoms: _455  and  _456
REMARK  185  A    between atoms: _461  and  _463
REMARK  186  A    between atoms: _463  and  _464
REMARK  187  A    between atoms: _463  and  _466
REMARK  188  A    between atoms: _469  and  _471
REMARK  189  A    between atoms: _471  and  _472
REMARK  190  A    between atoms: _471  and  _474
REMARK  191  A    between atoms: _474  and  _475
REMARK  192  A    between atoms: _480  and  _482
REMARK  193  A    between atoms: _482  and  _483
REMARK  194  A    between atoms: _482  and  _485
REMARK  195  A    between atoms: _485  and  _486
REMARK  196  A    between atoms: _489  and  _491
REMARK  197  A    between atoms: _491  and  _492
REMARK  198  A    between atoms: _491  and  _494
REMARK  199  A    between atoms: _494  and  _495
REMARK  200  A    between atoms: _498  and  _500
REMARK  201  A    between atoms: _500  and  _501
REMARK  202  A    between atoms: _503  and  _505
REMARK  203  A    between atoms: _505  and  _506
REMARK  204  A    between atoms: _505  and  _508
REMARK  205  A    between atoms: _508  and  _509
REMARK  206  A    between atoms: _509  and  _510
REMARK  207  A    between atoms: _510  and  _511
REMARK  208  A    between atoms: _520  and  _522
REMARK  209  A    between atoms: _522  and  _523
REMARK  210  A    between atoms: _522  and  _525
REMARK  211  A    between atoms: _525  and  _526
REMARK                            x       y       z     vdW  Elec       q    Type
REMARK                         _______ _______ _______ _____ _____    ______ ____
ROOT
ATOM      1  CA  LEU A   1      39.210  11.457  54.148  0.00  0.00    +0.133 C 
ENDROOT
BRANCH   1   2
ATOM      2  N   LEU A   1      39.986  10.297  54.599  0.00  0.00    -0.239 NA
ATOM      3  H   LEU A   1      40.703  10.437  55.340  0.00  0.00    +0.142 HD
ENDBRANCH   1   2
BRANCH   1   4
ATOM      4  C   LEU A   1      40.146  12.333  53.337  0.00  0.00    +0.224 C 
ATOM      5  O   LEU A   1      41.301  12.553  53.738  0.00  0.00    -0.287 OA
ENDBRANCH   1   4
BRANCH   1   6
ATOM      6  CB  LEU A   1      38.669  12.258  55.335  0.00  0.00    +0.025 C 
BRANCH   6   7
ATOM      7  CG  LEU A   1      37.864  11.485  56.381  0.00  0.00    +0.002 C 
ATOM      8  CD2 LEU A   1      37.565  12.403  57.560  0.00  0.00    +0.000 C 
ATOM      9  CD1 LEU A   1      36.596  10.887  55.781  0.00  0.00    +0.000 C 
ENDBRANCH   6   7
ENDBRANCH   1   6
TORSDOF 4
REMARK  Name = ../refined-set-2016/1a9m/1a9m_pocket.pdb
REMARK  211 active torsions:
REMARK  status: ('A' for Active; 'I' for Inactive)
REMARK    1  A    between atoms: _1  and  _3
REMARK    2  A    between atoms: _3  and  _4
REMARK    3  A    between atoms: _3  and  _6
REMARK    4  A    between atoms: _6  and  _7
REMARK    5  A    between atoms: _7  and  _8
REMARK    6  A    between atoms: _8  and  _9
REMARK    7  A    between atoms: _18  and  _20
REMARK    8  A    between atoms: _20  and  _21
REMARK    9  A    between atoms: _20  and  _23
REMARK   10  A    between atoms: _23  and  _24
REMARK   11  A    between atoms: _27  and  _29
REMARK   12  A    between atoms: _29  and  _30
REMARK   13  A    between atoms: _29  and  _32
REMARK   14  A    between atoms: _32  and  _33
REMARK   15  A    between atoms: _36  and  _38
REMARK   16  A    between atoms: _38  and  _39
REMARK   17  A    between atoms: _38  and  _41
REMARK   18  A    between atoms: _41  and  _42
REMARK   19  A    between atoms: _45  and  _47
REMARK   20  A    between atoms: _47  and  _48
REMARK   21  A    between atoms: _47  and  _50
REMARK   22  A    between atoms: _50  and  _51
REMARK   23  A    between atoms: _54  and  _56
REMARK   24  A    between atoms: _56  and  _57
REMARK   25  A    between atoms: _56  and  _59
REMARK   26  A    between atoms: _59  and  _60
REMARK   27  A    between atoms: _63  and  _65
REMARK   28  A    between atoms: _65  and  _66
REMARK   29  A    between atoms: _68  and  _70
REMARK   30  A    between atoms: _70  and  _71
REMARK   31  A    between atoms: _74  and  _76
REMARK   32  A    between atoms: _76  and  _77
REMARK   33  A    between atoms: _76  and  _79
REMARK   34  A    between atoms: _79  and  _80
REMARK   35  A    between atoms: _83  and  _85
REMARK   36  A    between atoms: _85  and  _86
REMARK   37  A    between atoms: _85  and  _88
REMARK   38  A    between atoms: _88  and  _89
REMARK   39  A    between atoms: _92  and  _94
REMARK   40  A    between atoms: _94  and  _95
REMARK   41  A    between atoms: _94  and  _97
REMARK   42  A    between atoms: _97  and  _98
REMARK   43  A    between atoms: _101  and  _103
REMARK   44  A    between atoms: _103  and  _104
REMARK   45  A    between atoms: _103  and  _106
REMARK   46  A    between atoms: _109  and  _111
REMARK   47  A    between atoms: _111  and  _112
REMARK   48  A    between atoms: _111  and  _114
REMARK   49  A    between atoms: _114  and  _115
REMARK   50  A    between atoms: _118  and  _120
REMARK   51  A    between atoms: _120  and  _121
REMARK   52  A    between atoms: _120  and  _123
REMARK   53  A    between atoms: _123  and  _124
REMARK   54  A    between atoms: _129  and  _131
REMARK   55  A    between atoms: _131  and  _132
REMARK   56  A    between atoms: _134  and  _136
REMARK   57  A    between atoms: _136  and  _137
REMARK   58  A    between atoms: _136  and  _139
REMARK   59  A    between atoms: _139  and  _140
REMARK   60  A    between atoms: _143  and  _145
REMARK   61  A    between atoms: _145  and  _146
REMARK   62  A    between atoms: _148  and  _150
REMARK   63  A    between atoms: _150  and  _151
REMARK   64  A    between atoms: _153  and  _155
REMARK   65  A    between atoms: _155  and  _156
REMARK   66  A    between atoms: _155  and  _158
REMARK   67  A    between atoms: _158  and  _159
REMARK   68  A    between atoms: _163  and  _164
REMARK   69  A    between atoms: _169  and  _171
REMARK   70  A    between atoms: _171  and  _172
REMARK   71  A    between atoms: _171  and  _174
REMARK   72  A    between atoms: _174  and  _175
REMARK   73  A    between atoms: _179  and  _180
REMARK   74  A    between atoms: _185  and  _187
REMARK   75  A    between atoms: _187  and  _188
REMARK   76  A    between atoms: _187  and  _190
REMARK   77  A    between atoms: _193  and  _195
REMARK   78  A    between atoms: _195  and  _196
REMARK   79  A    between atoms: _195  and  _198
REMARK   80  A    between atoms: _198  and  _199
REMARK   81  A    between atoms: _204  and  _206
REMARK   82  A    between atoms: _206  and  _207
REMARK   83  A    between atoms: _206  and  _209
REMARK   84  A    between atoms: _209  and  _210
REMARK   85  A    between atoms: _213  and  _215
REMARK   86  A    between atoms: _215  and  _216
REMARK   87  A    between atoms: _218  and  _220
REMARK   88  A    between atoms: _220  and  _221
REMARK   89  A    between atoms: _220  and  _223
REMARK   90  A    between atoms: _223  and  _224
REMARK   91  A    between atoms: _224  and  _225
REMARK   92  A    between atoms: _225  and  _226
REMARK   93  A    between atoms: _235  and  _237
REMARK   94  A    between atoms: _237  and  _238
REMARK   95  A    between atoms: _237  and  _240
REMARK   96  A    between atoms: _240  and  _241
REMARK   97  A    between atoms: _241  and  _242
REMARK   98  A    between atoms: _242  and  _243
REMARK   99  A    between atoms: _252  and  _254
REMARK  100  A    between atoms: _254  and  _255
REMARK  101  A    between atoms: _254  and  _257
REMARK  102  A    between atoms: _257  and  _258
REMARK  103  A    between atoms: _261  and  _263
REMARK  104  A    between atoms: _263  and  _264
REMARK  105  A    between atoms: _263  and  _266
REMARK  106  A    between atoms: _266  and  _267
REMARK  107  A    between atoms: _270  and  _272
REMARK  108  A    between atoms: _272  and  _273
REMARK  109  A    between atoms: _272  and  _275
REMARK  110  A    between atoms: _275  and  _276
REMARK  111  A    between atoms: _279  and  _281
REMARK  112  A    between atoms: _281  and  _282
REMARK  113  A    between atoms: _281  and  _284
REMARK  114  A    between atoms: _284  and  _285
REMARK  115  A    between atoms: _288  and  _290
REMARK  116  A    between atoms: _290  and  _291
REMARK  117  A    between atoms: _293  and  _295
REMARK  118  A    between atoms: _295  and  _296
REMARK  119  A    between atoms: _299  and  _301
REMARK  120  A    between atoms: _301  and  _302
REMARK  121  A    between atoms: _301  and  _304
REMARK  122  A    between atoms: _304  and  _305
REMARK  123  A    between atoms: _308  and  _310
REMARK  124  A    between atoms: _310  and  _311
REMARK  125  A    between atoms: _310  and  _313
REMARK  126  A    between atoms: _313  and  _314
REMARK  127  A    between atoms: _317  and  _319
REMARK  128  A    between atoms: _319  and  _320
REMARK  129  A    between atoms: _319  and  _322
REMARK  130  A    between atoms: _322  and  _323
REMARK  131  A    between atoms: _326  and  _328
REMARK  132  A    between atoms: _328  and  _329
REMARK  133  A    between atoms: _328  and  _331
REMARK  134  A    between atoms: _334  and  _336
REMARK  135  A    between atoms: _336  and  _337
REMARK  136  A    between atoms: _336  and  _339
REMARK  137  A    between atoms: _339  and  _340
REMARK  138  A    between atoms: _340  and  _341
REMARK  139  A    between atoms: _341  and  _342
REMARK  140  A    between atoms: _342  and  _343
REMARK  141  A    between atoms: _347  and  _349
REMARK  142  A    between atoms: _349  and  _350
REMARK  143  A    between atoms: _349  and  _352
REMARK  144  A    between atoms: _352  and  _353
REMARK  145  A    between atoms: _353  and  _354
REMARK  146  A    between atoms: _356  and  _358
REMARK  147  A    between atoms: _358  and  _359
REMARK  148  A    between atoms: _358  and  _361
REMARK  149  A    between atoms: _361  and  _362
REMARK  150  A    between atoms: _365  and  _367
REMARK  151  A    between atoms: _367  and  _368
REMARK  152  A    between atoms: _367  and  _370
REMARK  153  A    between atoms: _370  and  _371
REMARK  154  A    between atoms: _376  and  _378
REMARK  155  A    between atoms: _378  and  _379
REMARK  156  A    between atoms: _381  and  _383
REMARK  157  A    between atoms: _383  and  _384
REMARK  158  A    between atoms: _383  and  _386
REMARK  159  A    between atoms: _386  and  _387
REMARK  160  A    between atoms: _390  and  _392
REMARK  161  A    between atoms: _392  and  _393
REMARK  162  A    between atoms: _395  and  _397
REMARK  163  A    between atoms: _397  and  _398
REMARK  164  A    between atoms: _400  and  _402
REMARK  165  A    between atoms: _402  and  _403
REMARK  166  A    between atoms: _402  and  _405
REMARK  167  A    between atoms: _405  and  _406
REMARK  168  A    between atoms: _412  and  _414
REMARK  169  A    between atoms: _414  and  _415
REMARK  170  A    between atoms: _414  and  _417
REMARK  171  A    between atoms: _417  and  _418
REMARK  172  A    between atoms: _421  and  _423
REMARK  173  A    between atoms: _423  and  _424
REMARK  174  A    between atoms: _423  and  _426
REMARK  175  A    between atoms: _429  and  _431
REMARK  176  A    between atoms: _431  and  _432
REMARK  177  A    between atoms: _431  and  _434
REMARK  178  A    between atoms: _434  and  _435
REMARK  179  A    between atoms: _439  and  _440
REMARK  180  A    between atoms: _445  and  _447
REMARK  181  A    between atoms: _447  and  _448
REMARK  182  A    between atoms: _447  and  _450
REMARK  183  A    between atoms: _450  and  _451
REMARK  184  A    between atoms: _455  and  _456
REMARK  185  A    between atoms: _461  and  _463
REMARK  186  A    between atoms: _463  and  _464
REMARK  187  A    between atoms: _463  and  _466
REMARK  188  A    between atoms: _469  and  _471
REMARK  189  A    between atoms: _471  and  _472
REMARK  190  A    between atoms: _471  and  _474
REMARK  191  A    between atoms: _474  and  _475
REMARK  192  A    between atoms: _480  and  _482
REMARK  193  A    between atoms: _482  and  _483
REMARK  194  A    between atoms: _482  and  _485
REMARK  195  A    between atoms: _485  and  _486
REMARK  196  A    between atoms: _489  and  _491
REMARK  197  A    between atoms: _491  and  _492
REMARK  198  A    between atoms: _491  and  _494
REMARK  199  A    between atoms: _494  and  _495
REMARK  200  A    between atoms: _498  and  _500
REMARK  201  A    between atoms: _500  and  _501
REMARK  202  A    between atoms: _503  and  _505
REMARK  203  A    between atoms: _505  and  _506
REMARK  204  A    between atoms: _505  and  _508
REMARK  205  A    between atoms: _508  and  _509
REMARK  206  A    between atoms: _509  and  _510
REMARK  207  A    between atoms: _510  and  _511
REMARK  208  A    between atoms: _520  and  _522
REMARK  209  A    between atoms: _522  and  _523
REMARK  210  A    between atoms: _522  and  _525
REMARK  211  A    between atoms: _525  and  _526
REMARK                            x       y       z     vdW  Elec       q    Type
REMARK                         _______ _______ _______ _____ _____    ______ ____
ROOT
ATOM      1  CA  ILE A   6      46.765  13.833  59.319  0.00  0.00    +0.149 C 
ENDROOT
BRANCH   1   2
ATOM      2  C   ILE A   6      46.484  12.334  59.496  0.00  0.00    +0.241 C 
ATOM      3  N   ILE A   7      47.199  11.693  60.424  0.00  0.00    -0.297 N 
ATOM      4  H   ILE A   7      47.939  12.212  60.938  0.00  0.00    +0.150 HD
ATOM      5  O   ILE A   6      45.616  11.775  58.816  0.00  0.00    -0.273 OA
BRANCH   3   6
ATOM      6  CA  ILE A   7      46.972  10.274  60.742  0.00  0.00    +0.149 C 
BRANCH   6   7
ATOM      7  C   ILE A   7      46.177  10.317  62.045  0.00  0.00    +0.241 C 
ATOM      8  O   ILE A   7      46.732  10.629  63.103  0.00  0.00    -0.273 OA
ATOM      9  N   GLY A   8      44.884  10.031  61.957  0.00  0.00    -0.295 N 
ATOM     10  H   GLY A   8      44.479   9.753  61.041  0.00  0.00    +0.150 HD
BRANCH   9  11
ATOM     11  CA  GLY A   8      44.036  10.103  63.122  0.00  0.00    +0.176 C 
BRANCH  11  12
ATOM     12  C   GLY A   8      44.002   8.868  63.968  0.00  0.00    +0.243 C 
ATOM     13  N   ARG A   9      43.287   8.966  65.083  0.00  0.00    -0.297 N 
ATOM     14  H   ARG A   9      42.804   9.861  65.297  0.00  0.00    +0.150 HD
ATOM     15  O   GLY A   8      44.572   7.835  63.612  0.00  0.00    -0.273 OA
BRANCH  13  16
ATOM     16  CA  ARG A   9      43.163   7.860  66.007  0.00  0.00    +0.149 C 
BRANCH  16  17
ATOM     17  C   ARG A   9      42.672   6.595  65.324  0.00  0.00    +0.241 C 
ATOM     18  O   ARG A   9      42.949   5.498  65.813  0.00  0.00    -0.273 OA
ATOM     19  N   ASN A  10      41.945   6.740  64.211  0.00  0.00    -0.298 N 
ATOM     20  H   ASN A  10      41.744   7.697  63.858  0.00  0.00    +0.150 HD
BRANCH  19  21
ATOM     21  CA  ASN A  10      41.421   5.575  63.471  0.00  0.00    +0.146 C 
BRANCH  21  22
ATOM     22  C   ASN A  10      42.504   4.651  62.898  0.00  0.00    +0.227 C 
ATOM     23  O   ASN A  10      42.245   3.465  62.646  0.00  0.00    -0.286 OA
ENDBRANCH  21  22
BRANCH  21  24
ATOM     24  CB  ASN A  10      40.457   5.984  62.351  0.00  0.00    +0.112 C 
BRANCH  24  25
ATOM     25  CG  ASN A  10      41.150   6.535  61.171  0.00  0.00    +0.222 C 
ATOM     26  OD1 ASN A  10      42.018   7.391  61.309  0.00  0.00    -0.275 OA
ATOM     27  ND2 ASN A  10      40.794   6.049  59.988  0.00  0.00    -0.329 N 
ATOM     28 HD21 ASN A  10      40.051   5.323  59.926  0.00  0.00    +0.145 HD
ATOM     29 HD22 ASN A  10      41.258   6.394  59.123  0.00  0.00    +0.145 HD
ENDBRANCH  24  25
ENDBRANCH  21  24
ENDBRANCH  19  21
ENDBRANCH  16  17
BRANCH  16  30
ATOM     30  CB  ARG A   9      42.211   8.197  67.143  0.00  0.00    +0.033 C 
BRANCH  30  31
ATOM     31  CG  ARG A   9      42.821   8.937  68.296  0.00  0.00    +0.045 C 
BRANCH  31  32
ATOM     32  CD  ARG A   9      41.891   8.871  69.506  0.00  0.00    +0.174 C 
BRANCH  32  33
ATOM     33  NE  ARG A   9      40.576   9.437  69.233  0.00  0.00    -0.265 N 
ATOM     34  HE  ARG A   9      40.496  10.473  69.182  0.00  0.00    +0.259 HD
ATOM     35  CZ  ARG A   9      39.471   8.722  69.045  0.00  0.00    +0.342 C 
ATOM     36  NH2 ARG A   9      39.495   7.391  69.101  0.00  0.00    -0.292 N 
ATOM     37 HH21 ARG A   9      40.388   6.895  69.294  0.00  0.00    +0.255 HD
ATOM     38 HH22 ARG A   9      38.620   6.848  68.951  0.00  0.00    +0.255 HD
ATOM     39  NH1 ARG A   9      38.345   9.340  68.732  0.00  0.00    -0.292 N 
ATOM     40 HH11 ARG A   9      38.330  10.375  68.635  0.00  0.00    +0.255 HD
ATOM     41 HH12 ARG A   9      37.475   8.791  68.583  0.00  0.00    +0.255 HD
ENDBRANCH  32  33
ENDBRANCH  31  32
ENDBRANCH  30  31
ENDBRANCH  16  30
ENDBRANCH  13  16
ENDBRANCH  11  12
ENDBRANCH   9  11
ENDBRANCH   6   7
BRANCH   6  42
ATOM     42  CB  ILE A   7      48.296   9.477  60.963  0.00  0.00    +0.027 C 
ATOM     43  CG2 ILE A   7      47.995   7.986  61.116  0.00  0.00    +0.002 C 
BRANCH  42  44
ATOM     44  CG1 ILE A   7      49.216   9.648  59.766  0.00  0.00    +0.002 C 
ATOM     45  CD1 ILE A   7      48.583   9.211  58.513  0.00  0.00    +0.000 C 
ENDBRANCH  42  44
ENDBRANCH   6  42
ENDBRANCH   3   6
ENDBRANCH   1   2
BRANCH   1  48
ATOM     46  C   ASN A   5      48.057  14.855  57.534  0.00  0.00    +0.241 C 
ATOM     47  O   ASN A   5      49.025  15.022  58.276  0.00  0.00    -0.273 OA
ATOM     48  N   ILE A   6      46.960  14.232  57.941  0.00  0.00    -0.297 N 
ATOM     49  H   ILE A   6      46.214  14.023  57.247  0.00  0.00    +0.150 HD
BRANCH  46  50
ATOM     50  CA  ASN A   5      48.125  15.296  56.049  0.00  0.00    +0.158 C 
BRANCH  50  53
ATOM     51  C   VAL A   4      47.890  17.679  56.523  0.00  0.00    +0.241 C 
ATOM     52  O   VAL A   4      46.714  17.568  56.873  0.00  0.00    -0.273 OA
ATOM     53  N   ASN A   5      48.624  16.666  56.066  0.00  0.00    -0.297 N 
ATOM     54  H   ASN A   5      49.582  16.858  55.710  0.00  0.00    +0.150 HD
BRANCH  51  55
ATOM     55  CA  VAL A   4      48.583  19.031  56.586  0.00  0.00    +0.149 C 
BRANCH  55  57
ATOM     56  C   PRO A   3      47.675  21.099  55.638  0.00  0.00    +0.241 C 
ATOM     57  N   VAL A   4      47.552  20.048  56.442  0.00  0.00    -0.297 N 
ATOM     58  H   VAL A   4      46.677  19.947  56.995  0.00  0.00    +0.150 HD
ATOM     59  O   PRO A   3      48.668  21.306  54.933  0.00  0.00    -0.273 OA
BRANCH  56  65
ATOM     60  C   THR A   2      44.763  20.525  54.844  0.00  0.00    +0.246 C 
ATOM     61  N   PRO A   3      45.217  21.376  55.773  0.00  0.00    -0.272 N 
ATOM     62  CD  PRO A   3      44.517  21.741  57.019  0.00  0.00    +0.094 C 
ATOM     63  CG  PRO A   3      45.088  23.093  57.302  0.00  0.00    +0.024 C 
ATOM     64  CB  PRO A   3      46.534  22.886  56.974  0.00  0.00    +0.031 C 
ATOM     65  CA  PRO A   3      46.499  22.080  55.672  0.00  0.00    +0.152 C 
ATOM     66  O   THR A   2      45.387  20.293  53.806  0.00  0.00    -0.273 OA
BRANCH  60  67
ATOM     67  CA  THR A   2      43.411  19.883  55.108  0.00  0.00    +0.176 C 
BRANCH  67  70
ATOM     68  C   PRO A   1      42.029  20.954  53.453  0.00  0.00    +0.239 C 
ATOM     69  O   PRO A   1      42.044  22.011  54.096  0.00  0.00    -0.274 OA
ATOM     70  N   THR A   2      42.662  19.860  53.868  0.00  0.00    -0.295 N 
ATOM     71  H   THR A   2      42.619  18.988  53.302  0.00  0.00    +0.150 HD
BRANCH  68  73
ATOM     72  N   PRO A   1      40.482  19.641  51.907  0.00  0.00    -0.210 NA
ATOM     73  CA  PRO A   1      41.268  20.862  52.119  0.00  0.00    +0.149 C 
ATOM     74  CB  PRO A   1      40.215  21.967  51.977  0.00  0.00    +0.028 C 
ATOM     75  CG  PRO A   1      38.936  21.305  52.442  0.00  0.00    +0.021 C 
ATOM     76  CD  PRO A   1      39.033  19.947  51.820  0.00  0.00    +0.089 C 
ENDBRANCH  68  73
ENDBRANCH  67  70
BRANCH  67  77
ATOM     77  CB  THR A   2      43.606  18.488  55.713  0.00  0.00    +0.137 C 
ATOM     78  CG2 THR A   2      44.299  17.566  54.744  0.00  0.00    +0.034 C 
BRANCH  77  79
ATOM     79  OG1 THR A   2      44.393  18.608  56.902  0.00  0.00    -0.382 OA
ATOM     80  HG1 THR A   2      45.272  19.002  56.676  0.00  0.00    +0.210 HD
ENDBRANCH  77  79
ENDBRANCH  67  77
ENDBRANCH  60  67
ENDBRANCH  56  65
ENDBRANCH  55  57
BRANCH  55  81
ATOM     81  CB  VAL A   4      49.251  19.108  58.023  0.00  0.00    +0.027 C 
ATOM     82  CG2 VAL A   4      49.092  20.477  58.613  0.00  0.00    +0.002 C 
ATOM     83  CG1 VAL A   4      50.729  18.716  57.991  0.00  0.00    +0.002 C 
ENDBRANCH  55  81
ENDBRANCH  51  55
ENDBRANCH  50  53
BRANCH  50  84
ATOM     84  CB  ASN A   5      49.096  14.408  55.282  0.00  0.00    +0.114 C 
BRANCH  84  85
ATOM     85  CG  ASN A   5      49.174  14.780  53.844  0.00  0.00    +0.222 C 
ATOM     86  ND2 ASN A   5      50.339  15.175  53.394  0.00  0.00    -0.329 N 
ATOM     87 HD21 ASN A   5      51.157  15.219  54.035  0.00  0.00    +0.145 HD
ATOM     88 HD22 ASN A   5      50.446  15.445  52.395  0.00  0.00    +0.145 HD
ATOM     89  OD1 ASN A   5      48.185  14.710  53.138  0.00  0.00    -0.275 OA
ENDBRANCH  84  85
ENDBRANCH  50  84
ENDBRANCH  46  50
ENDBRANCH   1  48
BRANCH   1  90
ATOM     90  CB  ILE A   6      45.544  14.644  59.889  0.00  0.00    +0.027 C 
ATOM     91  CG2 ILE A   6      45.057  14.109  61.241  0.00  0.00    +0.002 C 
BRANCH  90  92
ATOM     92  CG1 ILE A   6      45.887  16.126  59.975  0.00  0.00    +0.002 C 
ATOM     93  CD1 ILE A   6      44.654  17.002  60.165  0.00  0.00    +0.000 C 
ENDBRANCH  90  92
ENDBRANCH   1  90
TORSDOF 33
REMARK  Name = ../refined-set-2016/1a9m/1a9m_pocket.pdb
REMARK  211 active torsions:
REMARK  status: ('A' for Active; 'I' for Inactive)
REMARK    1  A    between atoms: _1  and  _3
REMARK    2  A    between atoms: _3  and  _4
REMARK    3  A    between atoms: _3  and  _6
REMARK    4  A    between atoms: _6  and  _7
REMARK    5  A    between atoms: _7  and  _8
REMARK    6  A    between atoms: _8  and  _9
REMARK    7  A    between atoms: _18  and  _20
REMARK    8  A    between atoms: _20  and  _21
REMARK    9  A    between atoms: _20  and  _23
REMARK   10  A    between atoms: _23  and  _24
REMARK   11  A    between atoms: _27  and  _29
REMARK   12  A    between atoms: _29  and  _30
REMARK   13  A    between atoms: _29  and  _32
REMARK   14  A    between atoms: _32  and  _33
REMARK   15  A    between atoms: _36  and  _38
REMARK   16  A    between atoms: _38  and  _39
REMARK   17  A    between atoms: _38  and  _41
REMARK   18  A    between atoms: _41  and  _42
REMARK   19  A    between atoms: _45  and  _47
REMARK   20  A    between atoms: _47  and  _48
REMARK   21  A    between atoms: _47  and  _50
REMARK   22  A    between atoms: _50  and  _51
REMARK   23  A    between atoms: _54  and  _56
REMARK   24  A    between atoms: _56  and  _57
REMARK   25  A    between atoms: _56  and  _59
REMARK   26  A    between atoms: _59  and  _60
REMARK   27  A    between atoms: _63  and  _65
REMARK   28  A    between atoms: _65  and  _66
REMARK   29  A    between atoms: _68  and  _70
REMARK   30  A    between atoms: _70  and  _71
REMARK   31  A    between atoms: _74  and  _76
REMARK   32  A    between atoms: _76  and  _77
REMARK   33  A    between atoms: _76  and  _79
REMARK   34  A    between atoms: _79  and  _80
REMARK   35  A    between atoms: _83  and  _85
REMARK   36  A    between atoms: _85  and  _86
REMARK   37  A    between atoms: _85  and  _88
REMARK   38  A    between atoms: _88  and  _89
REMARK   39  A    between atoms: _92  and  _94
REMARK   40  A    between atoms: _94  and  _95
REMARK   41  A    between atoms: _94  and  _97
REMARK   42  A    between atoms: _97  and  _98
REMARK   43  A    between atoms: _101  and  _103
REMARK   44  A    between atoms: _103  and  _104
REMARK   45  A    between atoms: _103  and  _106
REMARK   46  A    between atoms: _109  and  _111
REMARK   47  A    between atoms: _111  and  _112
REMARK   48  A    between atoms: _111  and  _114
REMARK   49  A    between atoms: _114  and  _115
REMARK   50  A    between atoms: _118  and  _120
REMARK   51  A    between atoms: _120  and  _121
REMARK   52  A    between atoms: _120  and  _123
REMARK   53  A    between atoms: _123  and  _124
REMARK   54  A    between atoms: _129  and  _131
REMARK   55  A    between atoms: _131  and  _132
REMARK   56  A    between atoms: _134  and  _136
REMARK   57  A    between atoms: _136  and  _137
REMARK   58  A    between atoms: _136  and  _139
REMARK   59  A    between atoms: _139  and  _140
REMARK   60  A    between atoms: _143  and  _145
REMARK   61  A    between atoms: _145  and  _146
REMARK   62  A    between atoms: _148  and  _150
REMARK   63  A    between atoms: _150  and  _151
REMARK   64  A    between atoms: _153  and  _155
REMARK   65  A    between atoms: _155  and  _156
REMARK   66  A    between atoms: _155  and  _158
REMARK   67  A    between atoms: _158  and  _159
REMARK   68  A    between atoms: _163  and  _164
REMARK   69  A    between atoms: _169  and  _171
REMARK   70  A    between atoms: _171  and  _172
REMARK   71  A    between atoms: _171  and  _174
REMARK   72  A    between atoms: _174  and  _175
REMARK   73  A    between atoms: _179  and  _180
REMARK   74  A    between atoms: _185  and  _187
REMARK   75  A    between atoms: _187  and  _188
REMARK   76  A    between atoms: _187  and  _190
REMARK   77  A    between atoms: _193  and  _195
REMARK   78  A    between atoms: _195  and  _196
REMARK   79  A    between atoms: _195  and  _198
REMARK   80  A    between atoms: _198  and  _199
REMARK   81  A    between atoms: _204  and  _206
REMARK   82  A    between atoms: _206  and  _207
REMARK   83  A    between atoms: _206  and  _209
REMARK   84  A    between atoms: _209  and  _210
REMARK   85  A    between atoms: _213  and  _215
REMARK   86  A    between atoms: _215  and  _216
REMARK   87  A    between atoms: _218  and  _220
REMARK   88  A    between atoms: _220  and  _221
REMARK   89  A    between atoms: _220  and  _223
REMARK   90  A    between atoms: _223  and  _224
REMARK   91  A    between atoms: _224  and  _225
REMARK   92  A    between atoms: _225  and  _226
REMARK   93  A    between atoms: _235  and  _237
REMARK   94  A    between atoms: _237  and  _238
REMARK   95  A    between atoms: _237  and  _240
REMARK   96  A    between atoms: _240  and  _241
REMARK   97  A    between atoms: _241  and  _242
REMARK   98  A    between atoms: _242  and  _243
REMARK   99  A    between atoms: _252  and  _254
REMARK  100  A    between atoms: _254  and  _255
REMARK  101  A    between atoms: _254  and  _257
REMARK  102  A    between atoms: _257  and  _258
REMARK  103  A    between atoms: _261  and  _263
REMARK  104  A    between atoms: _263  and  _264
REMARK  105  A    between atoms: _263  and  _266
REMARK  106  A    between atoms: _266  and  _267
REMARK  107  A    between atoms: _270  and  _272
REMARK  108  A    between atoms: _272  and  _273
REMARK  109  A    between atoms: _272  and  _275
REMARK  110  A    between atoms: _275  and  _276
REMARK  111  A    between atoms: _279  and  _281
REMARK  112  A    between atoms: _281  and  _282
REMARK  113  A    between atoms: _281  and  _284
REMARK  114  A    between atoms: _284  and  _285
REMARK  115  A    between atoms: _288  and  _290
REMARK  116  A    between atoms: _290  and  _291
REMARK  117  A    between atoms: _293  and  _295
REMARK  118  A    between atoms: _295  and  _296
REMARK  119  A    between atoms: _299  and  _301
REMARK  120  A    between atoms: _301  and  _302
REMARK  121  A    between atoms: _301  and  _304
REMARK  122  A    between atoms: _304  and  _305
REMARK  123  A    between atoms: _308  and  _310
REMARK  124  A    between atoms: _310  and  _311
REMARK  125  A    between atoms: _310  and  _313
REMARK  126  A    between atoms: _313  and  _314
REMARK  127  A    between atoms: _317  and  _319
REMARK  128  A    between atoms: _319  and  _320
REMARK  129  A    between atoms: _319  and  _322
REMARK  130  A    between atoms: _322  and  _323
REMARK  131  A    between atoms: _326  and  _328
REMARK  132  A    between atoms: _328  and  _329
REMARK  133  A    between atoms: _328  and  _331
REMARK  134  A    between atoms: _334  and  _336
REMARK  135  A    between atoms: _336  and  _337
REMARK  136  A    between atoms: _336  and  _339
REMARK  137  A    between atoms: _339  and  _340
REMARK  138  A    between atoms: _340  and  _341
REMARK  139  A    between atoms: _341  and  _342
REMARK  140  A    between atoms: _342  and  _343
REMARK  141  A    between atoms: _347  and  _349
REMARK  142  A    between atoms: _349  and  _350
REMARK  143  A    between atoms: _349  and  _352
REMARK  144  A    between atoms: _352  and  _353
REMARK  145  A    between atoms: _353  and  _354
REMARK  146  A    between atoms: _356  and  _358
REMARK  147  A    between atoms: _358  and  _359
REMARK  148  A    between atoms: _358  and  _361
REMARK  149  A    between atoms: _361  and  _362
REMARK  150  A    between atoms: _365  and  _367
REMARK  151  A    between atoms: _367  and  _368
REMARK  152  A    between atoms: _367  and  _370
REMARK  153  A    between atoms: _370  and  _371
REMARK  154  A    between atoms: _376  and  _378
REMARK  155  A    between atoms: _378  and  _379
REMARK  156  A    between atoms: _381  and  _383
REMARK  157  A    between atoms: _383  and  _384
REMARK  158  A    between atoms: _383  and  _386
REMARK  159  A    between atoms: _386  and  _387
REMARK  160  A    between atoms: _390  and  _392
REMARK  161  A    between atoms: _392  and  _393
REMARK  162  A    between atoms: _395  and  _397
REMARK  163  A    between atoms: _397  and  _398
REMARK  164  A    between atoms: _400  and  _402
REMARK  165  A    between atoms: _402  and  _403
REMARK  166  A    between atoms: _402  and  _405
REMARK  167  A    between atoms: _405  and  _406
REMARK  168  A    between atoms: _412  and  _414
REMARK  169  A    between atoms: _414  and  _415
REMARK  170  A    between atoms: _414  and  _417
REMARK  171  A    between atoms: _417  and  _418
REMARK  172  A    between atoms: _421  and  _423
REMARK  173  A    between atoms: _423  and  _424
REMARK  174  A    between atoms: _423  and  _426
REMARK  175  A    between atoms: _429  and  _431
REMARK  176  A    between atoms: _431  and  _432
REMARK  177  A    between atoms: _431  and  _434
REMARK  178  A    between atoms: _434  and  _435
REMARK  179  A    between atoms: _439  and  _440
REMARK  180  A    between atoms: _445  and  _447
REMARK  181  A    between atoms: _447  and  _448
REMARK  182  A    between atoms: _447  and  _450
REMARK  183  A    between atoms: _450  and  _451
REMARK  184  A    between atoms: _455  and  _456
REMARK  185  A    between atoms: _461  and  _463
REMARK  186  A    between atoms: _463  and  _464
REMARK  187  A    between atoms: _463  and  _466
REMARK  188  A    between atoms: _469  and  _471
REMARK  189  A    between atoms: _471  and  _472
REMARK  190  A    between atoms: _471  and  _474
REMARK  191  A    between atoms: _474  and  _475
REMARK  192  A    between atoms: _480  and  _482
REMARK  193  A    between atoms: _482  and  _483
REMARK  194  A    between atoms: _482  and  _485
REMARK  195  A    between atoms: _485  and  _486
REMARK  196  A    between atoms: _489  and  _491
REMARK  197  A    between atoms: _491  and  _492
REMARK  198  A    between atoms: _491  and  _494
REMARK  199  A    between atoms: _494  and  _495
REMARK  200  A    between atoms: _498  and  _500
REMARK  201  A    between atoms: _500  and  _501
REMARK  202  A    between atoms: _503  and  _505
REMARK  203  A    between atoms: _505  and  _506
REMARK  204  A    between atoms: _505  and  _508
REMARK  205  A    between atoms: _508  and  _509
REMARK  206  A    between atoms: _509  and  _510
REMARK  207  A    between atoms: _510  and  _511
REMARK  208  A    between atoms: _520  and  _522
REMARK  209  A    between atoms: _522  and  _523
REMARK  210  A    between atoms: _522  and  _525
REMARK  211  A    between atoms: _525  and  _526
REMARK                            x       y       z     vdW  Elec       q    Type
REMARK                         _______ _______ _______ _____ _____    ______ ____
ROOT
ATOM      1  O   HOH     1      41.545  22.230  63.704  0.00  0.00    +0.000 OA
ENDROOT
TORSDOF 0
REMARK  Name = ../refined-set-2016/1a9m/1a9m_pocket.pdb
REMARK  211 active torsions:
REMARK  status: ('A' for Active; 'I' for Inactive)
REMARK    1  A    between atoms: _1  and  _3
REMARK    2  A    between atoms: _3  and  _4
REMARK    3  A    between atoms: _3  and  _6
REMARK    4  A    between atoms: _6  and  _7
REMARK    5  A    between atoms: _7  and  _8
REMARK    6  A    between atoms: _8  and  _9
REMARK    7  A    between atoms: _18  and  _20
REMARK    8  A    between atoms: _20  and  _21
REMARK    9  A    between atoms: _20  and  _23
REMARK   10  A    between atoms: _23  and  _24
REMARK   11  A    between atoms: _27  and  _29
REMARK   12  A    between atoms: _29  and  _30
REMARK   13  A    between atoms: _29  and  _32
REMARK   14  A    between atoms: _32  and  _33
REMARK   15  A    between atoms: _36  and  _38
REMARK   16  A    between atoms: _38  and  _39
REMARK   17  A    between atoms: _38  and  _41
REMARK   18  A    between atoms: _41  and  _42
REMARK   19  A    between atoms: _45  and  _47
REMARK   20  A    between atoms: _47  and  _48
REMARK   21  A    between atoms: _47  and  _50
REMARK   22  A    between atoms: _50  and  _51
REMARK   23  A    between atoms: _54  and  _56
REMARK   24  A    between atoms: _56  and  _57
REMARK   25  A    between atoms: _56  and  _59
REMARK   26  A    between atoms: _59  and  _60
REMARK   27  A    between atoms: _63  and  _65
REMARK   28  A    between atoms: _65  and  _66
REMARK   29  A    between atoms: _68  and  _70
REMARK   30  A    between atoms: _70  and  _71
REMARK   31  A    between atoms: _74  and  _76
REMARK   32  A    between atoms: _76  and  _77
REMARK   33  A    between atoms: _76  and  _79
REMARK   34  A    between atoms: _79  and  _80
REMARK   35  A    between atoms: _83  and  _85
REMARK   36  A    between atoms: _85  and  _86
REMARK   37  A    between atoms: _85  and  _88
REMARK   38  A    between atoms: _88  and  _89
REMARK   39  A    between atoms: _92  and  _94
REMARK   40  A    between atoms: _94  and  _95
REMARK   41  A    between atoms: _94  and  _97
REMARK   42  A    between atoms: _97  and  _98
REMARK   43  A    between atoms: _101  and  _103
REMARK   44  A    between atoms: _103  and  _104
REMARK   45  A    between atoms: _103  and  _106
REMARK   46  A    between atoms: _109  and  _111
REMARK   47  A    between atoms: _111  and  _112
REMARK   48  A    between atoms: _111  and  _114
REMARK   49  A    between atoms: _114  and  _115
REMARK   50  A    between atoms: _118  and  _120
REMARK   51  A    between atoms: _120  and  _121
REMARK   52  A    between atoms: _120  and  _123
REMARK   53  A    between atoms: _123  and  _124
REMARK   54  A    between atoms: _129  and  _131
REMARK   55  A    between atoms: _131  and  _132
REMARK   56  A    between atoms: _134  and  _136
REMARK   57  A    between atoms: _136  and  _137
REMARK   58  A    between atoms: _136  and  _139
REMARK   59  A    between atoms: _139  and  _140
REMARK   60  A    between atoms: _143  and  _145
REMARK   61  A    between atoms: _145  and  _146
REMARK   62  A    between atoms: _148  and  _150
REMARK   63  A    between atoms: _150  and  _151
REMARK   64  A    between atoms: _153  and  _155
REMARK   65  A    between atoms: _155  and  _156
REMARK   66  A    between atoms: _155  and  _158
REMARK   67  A    between atoms: _158  and  _159
REMARK   68  A    between atoms: _163  and  _164
REMARK   69  A    between atoms: _169  and  _171
REMARK   70  A    between atoms: _171  and  _172
REMARK   71  A    between atoms: _171  and  _174
REMARK   72  A    between atoms: _174  and  _175
REMARK   73  A    between atoms: _179  and  _180
REMARK   74  A    between atoms: _185  and  _187
REMARK   75  A    between atoms: _187  and  _188
REMARK   76  A    between atoms: _187  and  _190
REMARK   77  A    between atoms: _193  and  _195
REMARK   78  A    between atoms: _195  and  _196
REMARK   79  A    between atoms: _195  and  _198
REMARK   80  A    between atoms: _198  and  _199
REMARK   81  A    between atoms: _204  and  _206
REMARK   82  A    between atoms: _206  and  _207
REMARK   83  A    between atoms: _206  and  _209
REMARK   84  A    between atoms: _209  and  _210
REMARK   85  A    between atoms: _213  and  _215
REMARK   86  A    between atoms: _215  and  _216
REMARK   87  A    between atoms: _218  and  _220
REMARK   88  A    between atoms: _220  and  _221
REMARK   89  A    between atoms: _220  and  _223
REMARK   90  A    between atoms: _223  and  _224
REMARK   91  A    between atoms: _224  and  _225
REMARK   92  A    between atoms: _225  and  _226
REMARK   93  A    between atoms: _235  and  _237
REMARK   94  A    between atoms: _237  and  _238
REMARK   95  A    between atoms: _237  and  _240
REMARK   96  A    between atoms: _240  and  _241
REMARK   97  A    between atoms: _241  and  _242
REMARK   98  A    between atoms: _242  and  _243
REMARK   99  A    between atoms: _252  and  _254
REMARK  100  A    between atoms: _254  and  _255
REMARK  101  A    between atoms: _254  and  _257
REMARK  102  A    between atoms: _257  and  _258
REMARK  103  A    between atoms: _261  and  _263
REMARK  104  A    between atoms: _263  and  _264
REMARK  105  A    between atoms: _263  and  _266
REMARK  106  A    between atoms: _266  and  _267
REMARK  107  A    between atoms: _270  and  _272
REMARK  108  A    between atoms: _272  and  _273
REMARK  109  A    between atoms: _272  and  _275
REMARK  110  A    between atoms: _275  and  _276
REMARK  111  A    between atoms: _279  and  _281
REMARK  112  A    between atoms: _281  and  _282
REMARK  113  A    between atoms: _281  and  _284
REMARK  114  A    between atoms: _284  and  _285
REMARK  115  A    between atoms: _288  and  _290
REMARK  116  A    between atoms: _290  and  _291
REMARK  117  A    between atoms: _293  and  _295
REMARK  118  A    between atoms: _295  and  _296
REMARK  119  A    between atoms: _299  and  _301
REMARK  120  A    between atoms: _301  and  _302
REMARK  121  A    between atoms: _301  and  _304
REMARK  122  A    between atoms: _304  and  _305
REMARK  123  A    between atoms: _308  and  _310
REMARK  124  A    between atoms: _310  and  _311
REMARK  125  A    between atoms: _310  and  _313
REMARK  126  A    between atoms: _313  and  _314
REMARK  127  A    between atoms: _317  and  _319
REMARK  128  A    between atoms: _319  and  _320
REMARK  129  A    between atoms: _319  and  _322
REMARK  130  A    between atoms: _322  and  _323
REMARK  131  A    between atoms: _326  and  _328
REMARK  132  A    between atoms: _328  and  _329
REMARK  133  A    between atoms: _328  and  _331
REMARK  134  A    between atoms: _334  and  _336
REMARK  135  A    between atoms: _336  and  _337
REMARK  136  A    between atoms: _336  and  _339
REMARK  137  A    between atoms: _339  and  _340
REMARK  138  A    between atoms: _340  and  _341
REMARK  139  A    between atoms: _341  and  _342
REMARK  140  A    between atoms: _342  and  _343
REMARK  141  A    between atoms: _347  and  _349
REMARK  142  A    between atoms: _349  and  _350
REMARK  143  A    between atoms: _349  and  _352
REMARK  144  A    between atoms: _352  and  _353
REMARK  145  A    between atoms: _353  and  _354
REMARK  146  A    between atoms: _356  and  _358
REMARK  147  A    between atoms: _358  and  _359
REMARK  148  A    between atoms: _358  and  _361
REMARK  149  A    between atoms: _361  and  _362
REMARK  150  A    between atoms: _365  and  _367
REMARK  151  A    between atoms: _367  and  _368
REMARK  152  A    between atoms: _367  and  _370
REMARK  153  A    between atoms: _370  and  _371
REMARK  154  A    between atoms: _376  and  _378
REMARK  155  A    between atoms: _378  and  _379
REMARK  156  A    between atoms: _381  and  _383
REMARK  157  A    between atoms: _383  and  _384
REMARK  158  A    between atoms: _383  and  _386
REMARK  159  A    between atoms: _386  and  _387
REMARK  160  A    between atoms: _390  and  _392
REMARK  161  A    between atoms: _392  and  _393
REMARK  162  A    between atoms: _395  and  _397
REMARK  163  A    between atoms: _397  and  _398
REMARK  164  A    between atoms: _400  and  _402
REMARK  165  A    between atoms: _402  and  _403
REMARK  166  A    between atoms: _402  and  _405
REMARK  167  A    between atoms: _405  and  _406
REMARK  168  A    between atoms: _412  and  _414
REMARK  169  A    between atoms: _414  and  _415
REMARK  170  A    between atoms: _414  and  _417
REMARK  171  A    between atoms: _417  and  _418
REMARK  172  A    between atoms: _421  and  _423
REMARK  173  A    between atoms: _423  and  _424
REMARK  174  A    between atoms: _423  and  _426
REMARK  175  A    between atoms: _429  and  _431
REMARK  176  A    between atoms: _431  and  _432
REMARK  177  A    between atoms: _431  and  _434
REMARK  178  A    between atoms: _434  and  _435
REMARK  179  A    between atoms: _439  and  _440
REMARK  180  A    between atoms: _445  and  _447
REMARK  181  A    between atoms: _447  and  _448
REMARK  182  A    between atoms: _447  and  _450
REMARK  183  A    between atoms: _450  and  _451
REMARK  184  A    between atoms: _455  and  _456
REMARK  185  A    between atoms: _461  and  _463
REMARK  186  A    between atoms: _463  and  _464
REMARK  187  A    between atoms: _463  and  _466
REMARK  188  A    between atoms: _469  and  _471
REMARK  189  A    between atoms: _471  and  _472
REMARK  190  A    between atoms: _471  and  _474
REMARK  191  A    between atoms: _474  and  _475
REMARK  192  A    between atoms: _480  and  _482
REMARK  193  A    between atoms: _482  and  _483
REMARK  194  A    between atoms: _482  and  _485
REMARK  195  A    between atoms: _485  and  _486
REMARK  196  A    between atoms: _489  and  _491
REMARK  197  A    between atoms: _491  and  _492
REMARK  198  A    between atoms: _491  and  _494
REMARK  199  A    between atoms: _494  and  _495
REMARK  200  A    between atoms: _498  and  _500
REMARK  201  A    between atoms: _500  and  _501
REMARK  202  A    between atoms: _503  and  _505
REMARK  203  A    between atoms: _505  and  _506
REMARK  204  A    between atoms: _505  and  _508
REMARK  205  A    between atoms: _508  and  _509
REMARK  206  A    between atoms: _509  and  _510
REMARK  207  A    between atoms: _510  and  _511
REMARK  208  A    between atoms: _520  and  _522
REMARK  209  A    between atoms: _522  and  _523
REMARK  210  A    between atoms: _522  and  _525
REMARK  211  A    between atoms: _525  and  _526
REMARK                            x       y       z     vdW  Elec       q    Type
REMARK                         _______ _______ _______ _____ _____    ______ ____
ROOT
ATOM      1  O   HOH     1      52.120  19.133  66.260  0.00  0.00    +0.000 OA
ENDROOT
TORSDOF 0
REMARK  Name = ../refined-set-2016/1a9m/1a9m_pocket.pdb
REMARK  211 active torsions:
REMARK  status: ('A' for Active; 'I' for Inactive)
REMARK    1  A    between atoms: _1  and  _3
REMARK    2  A    between atoms: _3  and  _4
REMARK    3  A    between atoms: _3  and  _6
REMARK    4  A    between atoms: _6  and  _7
REMARK    5  A    between atoms: _7  and  _8
REMARK    6  A    between atoms: _8  and  _9
REMARK    7  A    between atoms: _18  and  _20
REMARK    8  A    between atoms: _20  and  _21
REMARK    9  A    between atoms: _20  and  _23
REMARK   10  A    between atoms: _23  and  _24
REMARK   11  A    between atoms: _27  and  _29
REMARK   12  A    between atoms: _29  and  _30
REMARK   13  A    between atoms: _29  and  _32
REMARK   14  A    between atoms: _32  and  _33
REMARK   15  A    between atoms: _36  and  _38
REMARK   16  A    between atoms: _38  and  _39
REMARK   17  A    between atoms: _38  and  _41
REMARK   18  A    between atoms: _41  and  _42
REMARK   19  A    between atoms: _45  and  _47
REMARK   20  A    between atoms: _47  and  _48
REMARK   21  A    between atoms: _47  and  _50
REMARK   22  A    between atoms: _50  and  _51
REMARK   23  A    between atoms: _54  and  _56
REMARK   24  A    between atoms: _56  and  _57
REMARK   25  A    between atoms: _56  and  _59
REMARK   26  A    between atoms: _59  and  _60
REMARK   27  A    between atoms: _63  and  _65
REMARK   28  A    between atoms: _65  and  _66
REMARK   29  A    between atoms: _68  and  _70
REMARK   30  A    between atoms: _70  and  _71
REMARK   31  A    between atoms: _74  and  _76
REMARK   32  A    between atoms: _76  and  _77
REMARK   33  A    between atoms: _76  and  _79
REMARK   34  A    between atoms: _79  and  _80
REMARK   35  A    between atoms: _83  and  _85
REMARK   36  A    between atoms: _85  and  _86
REMARK   37  A    between atoms: _85  and  _88
REMARK   38  A    between atoms: _88  and  _89
REMARK   39  A    between atoms: _92  and  _94
REMARK   40  A    between atoms: _94  and  _95
REMARK   41  A    between atoms: _94  and  _97
REMARK   42  A    between atoms: _97  and  _98
REMARK   43  A    between atoms: _101  and  _103
REMARK   44  A    between atoms: _103  and  _104
REMARK   45  A    between atoms: _103  and  _106
REMARK   46  A    between atoms: _109  and  _111
REMARK   47  A    between atoms: _111  and  _112
REMARK   48  A    between atoms: _111  and  _114
REMARK   49  A    between atoms: _114  and  _115
REMARK   50  A    between atoms: _118  and  _120
REMARK   51  A    between atoms: _120  and  _121
REMARK   52  A    between atoms: _120  and  _123
REMARK   53  A    between atoms: _123  and  _124
REMARK   54  A    between atoms: _129  and  _131
REMARK   55  A    between atoms: _131  and  _132
REMARK   56  A    between atoms: _134  and  _136
REMARK   57  A    between atoms: _136  and  _137
REMARK   58  A    between atoms: _136  and  _139
REMARK   59  A    between atoms: _139  and  _140
REMARK   60  A    between atoms: _143  and  _145
REMARK   61  A    between atoms: _145  and  _146
REMARK   62  A    between atoms: _148  and  _150
REMARK   63  A    between atoms: _150  and  _151
REMARK   64  A    between atoms: _153  and  _155
REMARK   65  A    between atoms: _155  and  _156
REMARK   66  A    between atoms: _155  and  _158
REMARK   67  A    between atoms: _158  and  _159
REMARK   68  A    between atoms: _163  and  _164
REMARK   69  A    between atoms: _169  and  _171
REMARK   70  A    between atoms: _171  and  _172
REMARK   71  A    between atoms: _171  and  _174
REMARK   72  A    between atoms: _174  and  _175
REMARK   73  A    between atoms: _179  and  _180
REMARK   74  A    between atoms: _185  and  _187
REMARK   75  A    between atoms: _187  and  _188
REMARK   76  A    between atoms: _187  and  _190
REMARK   77  A    between atoms: _193  and  _195
REMARK   78  A    between atoms: _195  and  _196
REMARK   79  A    between atoms: _195  and  _198
REMARK   80  A    between atoms: _198  and  _199
REMARK   81  A    between atoms: _204  and  _206
REMARK   82  A    between atoms: _206  and  _207
REMARK   83  A    between atoms: _206  and  _209
REMARK   84  A    between atoms: _209  and  _210
REMARK   85  A    between atoms: _213  and  _215
REMARK   86  A    between atoms: _215  and  _216
REMARK   87  A    between atoms: _218  and  _220
REMARK   88  A    between atoms: _220  and  _221
REMARK   89  A    between atoms: _220  and  _223
REMARK   90  A    between atoms: _223  and  _224
REMARK   91  A    between atoms: _224  and  _225
REMARK   92  A    between atoms: _225  and  _226
REMARK   93  A    between atoms: _235  and  _237
REMARK   94  A    between atoms: _237  and  _238
REMARK   95  A    between atoms: _237  and  _240
REMARK   96  A    between atoms: _240  and  _241
REMARK   97  A    between atoms: _241  and  _242
REMARK   98  A    between atoms: _242  and  _243
REMARK   99  A    between atoms: _252  and  _254
REMARK  100  A    between atoms: _254  and  _255
REMARK  101  A    between atoms: _254  and  _257
REMARK  102  A    between atoms: _257  and  _258
REMARK  103  A    between atoms: _261  and  _263
REMARK  104  A    between atoms: _263  and  _264
REMARK  105  A    between atoms: _263  and  _266
REMARK  106  A    between atoms: _266  and  _267
REMARK  107  A    between atoms: _270  and  _272
REMARK  108  A    between atoms: _272  and  _273
REMARK  109  A    between atoms: _272  and  _275
REMARK  110  A    between atoms: _275  and  _276
REMARK  111  A    between atoms: _279  and  _281
REMARK  112  A    between atoms: _281  and  _282
REMARK  113  A    between atoms: _281  and  _284
REMARK  114  A    between atoms: _284  and  _285
REMARK  115  A    between atoms: _288  and  _290
REMARK  116  A    between atoms: _290  and  _291
REMARK  117  A    between atoms: _293  and  _295
REMARK  118  A    between atoms: _295  and  _296
REMARK  119  A    between atoms: _299  and  _301
REMARK  120  A    between atoms: _301  and  _302
REMARK  121  A    between atoms: _301  and  _304
REMARK  122  A    between atoms: _304  and  _305
REMARK  123  A    between atoms: _308  and  _310
REMARK  124  A    between atoms: _310  and  _311
REMARK  125  A    between atoms: _310  and  _313
REMARK  126  A    between atoms: _313  and  _314
REMARK  127  A    between atoms: _317  and  _319
REMARK  128  A    between atoms: _319  and  _320
REMARK  129  A    between atoms: _319  and  _322
REMARK  130  A    between atoms: _322  and  _323
REMARK  131  A    between atoms: _326  and  _328
REMARK  132  A    between atoms: _328  and  _329
REMARK  133  A    between atoms: _328  and  _331
REMARK  134  A    between atoms: _334  and  _336
REMARK  135  A    between atoms: _336  and  _337
REMARK  136  A    between atoms: _336  and  _339
REMARK  137  A    between atoms: _339  and  _340
REMARK  138  A    between atoms: _340  and  _341
REMARK  139  A    between atoms: _341  and  _342
REMARK  140  A    between atoms: _342  and  _343
REMARK  141  A    between atoms: _347  and  _349
REMARK  142  A    between atoms: _349  and  _350
REMARK  143  A    between atoms: _349  and  _352
REMARK  144  A    between atoms: _352  and  _353
REMARK  145  A    between atoms: _353  and  _354
REMARK  146  A    between atoms: _356  and  _358
REMARK  147  A    between atoms: _358  and  _359
REMARK  148  A    between atoms: _358  and  _361
REMARK  149  A    between atoms: _361  and  _362
REMARK  150  A    between atoms: _365  and  _367
REMARK  151  A    between atoms: _367  and  _368
REMARK  152  A    between atoms: _367  and  _370
REMARK  153  A    between atoms: _370  and  _371
REMARK  154  A    between atoms: _376  and  _378
REMARK  155  A    between atoms: _378  and  _379
REMARK  156  A    between atoms: _381  and  _383
REMARK  157  A    between atoms: _383  and  _384
REMARK  158  A    between atoms: _383  and  _386
REMARK  159  A    between atoms: _386  and  _387
REMARK  160  A    between atoms: _390  and  _392
REMARK  161  A    between atoms: _392  and  _393
REMARK  162  A    between atoms: _395  and  _397
REMARK  163  A    between atoms: _397  and  _398
REMARK  164  A    between atoms: _400  and  _402
REMARK  165  A    between atoms: _402  and  _403
REMARK  166  A    between atoms: _402  and  _405
REMARK  167  A    between atoms: _405  and  _406
REMARK  168  A    between atoms: _412  and  _414
REMARK  169  A    between atoms: _414  and  _415
REMARK  170  A    between atoms: _414  and  _417
REMARK  171  A    between atoms: _417  and  _418
REMARK  172  A    between atoms: _421  and  _423
REMARK  173  A    between atoms: _423  and  _424
REMARK  174  A    between atoms: _423  and  _426
REMARK  175  A    between atoms: _429  and  _431
REMARK  176  A    between atoms: _431  and  _432
REMARK  177  A    between atoms: _431  and  _434
REMARK  178  A    between atoms: _434  and  _435
REMARK  179  A    between atoms: _439  and  _440
REMARK  180  A    between atoms: _445  and  _447
REMARK  181  A    between atoms: _447  and  _448
REMARK  182  A    between atoms: _447  and  _450
REMARK  183  A    between atoms: _450  and  _451
REMARK  184  A    between atoms: _455  and  _456
REMARK  185  A    between atoms: _461  and  _463
REMARK  186  A    between atoms: _463  and  _464
REMARK  187  A    between atoms: _463  and  _466
REMARK  188  A    between atoms: _469  and  _471
REMARK  189  A    between atoms: _471  and  _472
REMARK  190  A    between atoms: _471  and  _474
REMARK  191  A    between atoms: _474  and  _475
REMARK  192  A    between atoms: _480  and  _482
REMARK  193  A    between atoms: _482  and  _483
REMARK  194  A    between atoms: _482  and  _485
REMARK  195  A    between atoms: _485  and  _486
REMARK  196  A    between atoms: _489  and  _491
REMARK  197  A    between atoms: _491  and  _492
REMARK  198  A    between atoms: _491  and  _494
REMARK  199  A    between atoms: _494  and  _495
REMARK  200  A    between atoms: _498  and  _500
REMARK  201  A    between atoms: _500  and  _501
REMARK  202  A    between atoms: _503  and  _505
REMARK  203  A    between atoms: _505  and  _506
REMARK  204  A    between atoms: _505  and  _508
REMARK  205  A    between atoms: _508  and  _509
REMARK  206  A    between atoms: _509  and  _510
REMARK  207  A    between atoms: _510  and  _511
REMARK  208  A    between atoms: _520  and  _522
REMARK  209  A    between atoms: _522  and  _523
REMARK  210  A    between atoms: _522  and  _525
REMARK  211  A    between atoms: _525  and  _526
REMARK                            x       y       z     vdW  Elec       q    Type
REMARK                         _______ _______ _______ _____ _____    ______ ____
ROOT
ATOM      1  O   HOH     1      35.692  21.707  76.285  0.00  0.00    +0.000 OA
ENDROOT
TORSDOF 0
REMARK  Name = ../refined-set-2016/1a9m/1a9m_pocket.pdb
REMARK  211 active torsions:
REMARK  status: ('A' for Active; 'I' for Inactive)
REMARK    1  A    between atoms: _1  and  _3
REMARK    2  A    between atoms: _3  and  _4
REMARK    3  A    between atoms: _3  and  _6
REMARK    4  A    between atoms: _6  and  _7
REMARK    5  A    between atoms: _7  and  _8
REMARK    6  A    between atoms: _8  and  _9
REMARK    7  A    between atoms: _18  and  _20
REMARK    8  A    between atoms: _20  and  _21
REMARK    9  A    between atoms: _20  and  _23
REMARK   10  A    between atoms: _23  and  _24
REMARK   11  A    between atoms: _27  and  _29
REMARK   12  A    between atoms: _29  and  _30
REMARK   13  A    between atoms: _29  and  _32
REMARK   14  A    between atoms: _32  and  _33
REMARK   15  A    between atoms: _36  and  _38
REMARK   16  A    between atoms: _38  and  _39
REMARK   17  A    between atoms: _38  and  _41
REMARK   18  A    between atoms: _41  and  _42
REMARK   19  A    between atoms: _45  and  _47
REMARK   20  A    between atoms: _47  and  _48
REMARK   21  A    between atoms: _47  and  _50
REMARK   22  A    between atoms: _50  and  _51
REMARK   23  A    between atoms: _54  and  _56
REMARK   24  A    between atoms: _56  and  _57
REMARK   25  A    between atoms: _56  and  _59
REMARK   26  A    between atoms: _59  and  _60
REMARK   27  A    between atoms: _63  and  _65
REMARK   28  A    between atoms: _65  and  _66
REMARK   29  A    between atoms: _68  and  _70
REMARK   30  A    between atoms: _70  and  _71
REMARK   31  A    between atoms: _74  and  _76
REMARK   32  A    between atoms: _76  and  _77
REMARK   33  A    between atoms: _76  and  _79
REMARK   34  A    between atoms: _79  and  _80
REMARK   35  A    between atoms: _83  and  _85
REMARK   36  A    between atoms: _85  and  _86
REMARK   37  A    between atoms: _85  and  _88
REMARK   38  A    between atoms: _88  and  _89
REMARK   39  A    between atoms: _92  and  _94
REMARK   40  A    between atoms: _94  and  _95
REMARK   41  A    between atoms: _94  and  _97
REMARK   42  A    between atoms: _97  and  _98
REMARK   43  A    between atoms: _101  and  _103
REMARK   44  A    between atoms: _103  and  _104
REMARK   45  A    between atoms: _103  and  _106
REMARK   46  A    between atoms: _109  and  _111
REMARK   47  A    between atoms: _111  and  _112
REMARK   48  A    between atoms: _111  and  _114
REMARK   49  A    between atoms: _114  and  _115
REMARK   50  A    between atoms: _118  and  _120
REMARK   51  A    between atoms: _120  and  _121
REMARK   52  A    between atoms: _120  and  _123
REMARK   53  A    between atoms: _123  and  _124
REMARK   54  A    between atoms: _129  and  _131
REMARK   55  A    between atoms: _131  and  _132
REMARK   56  A    between atoms: _134  and  _136
REMARK   57  A    between atoms: _136  and  _137
REMARK   58  A    between atoms: _136  and  _139
REMARK   59  A    between atoms: _139  and  _140
REMARK   60  A    between atoms: _143  and  _145
REMARK   61  A    between atoms: _145  and  _146
REMARK   62  A    between atoms: _148  and  _150
REMARK   63  A    between atoms: _150  and  _151
REMARK   64  A    between atoms: _153  and  _155
REMARK   65  A    between atoms: _155  and  _156
REMARK   66  A    between atoms: _155  and  _158
REMARK   67  A    between atoms: _158  and  _159
REMARK   68  A    between atoms: _163  and  _164
REMARK   69  A    between atoms: _169  and  _171
REMARK   70  A    between atoms: _171  and  _172
REMARK   71  A    between atoms: _171  and  _174
REMARK   72  A    between atoms: _174  and  _175
REMARK   73  A    between atoms: _179  and  _180
REMARK   74  A    between atoms: _185  and  _187
REMARK   75  A    between atoms: _187  and  _188
REMARK   76  A    between atoms: _187  and  _190
REMARK   77  A    between atoms: _193  and  _195
REMARK   78  A    between atoms: _195  and  _196
REMARK   79  A    between atoms: _195  and  _198
REMARK   80  A    between atoms: _198  and  _199
REMARK   81  A    between atoms: _204  and  _206
REMARK   82  A    between atoms: _206  and  _207
REMARK   83  A    between atoms: _206  and  _209
REMARK   84  A    between atoms: _209  and  _210
REMARK   85  A    between atoms: _213  and  _215
REMARK   86  A    between atoms: _215  and  _216
REMARK   87  A    between atoms: _218  and  _220
REMARK   88  A    between atoms: _220  and  _221
REMARK   89  A    between atoms: _220  and  _223
REMARK   90  A    between atoms: _223  and  _224
REMARK   91  A    between atoms: _224  and  _225
REMARK   92  A    between atoms: _225  and  _226
REMARK   93  A    between atoms: _235  and  _237
REMARK   94  A    between atoms: _237  and  _238
REMARK   95  A    between atoms: _237  and  _240
REMARK   96  A    between atoms: _240  and  _241
REMARK   97  A    between atoms: _241  and  _242
REMARK   98  A    between atoms: _242  and  _243
REMARK   99  A    between atoms: _252  and  _254
REMARK  100  A    between atoms: _254  and  _255
REMARK  101  A    between atoms: _254  and  _257
REMARK  102  A    between atoms: _257  and  _258
REMARK  103  A    between atoms: _261  and  _263
REMARK  104  A    between atoms: _263  and  _264
REMARK  105  A    between atoms: _263  and  _266
REMARK  106  A    between atoms: _266  and  _267
REMARK  107  A    between atoms: _270  and  _272
REMARK  108  A    between atoms: _272  and  _273
REMARK  109  A    between atoms: _272  and  _275
REMARK  110  A    between atoms: _275  and  _276
REMARK  111  A    between atoms: _279  and  _281
REMARK  112  A    between atoms: _281  and  _282
REMARK  113  A    between atoms: _281  and  _284
REMARK  114  A    between atoms: _284  and  _285
REMARK  115  A    between atoms: _288  and  _290
REMARK  116  A    between atoms: _290  and  _291
REMARK  117  A    between atoms: _293  and  _295
REMARK  118  A    between atoms: _295  and  _296
REMARK  119  A    between atoms: _299  and  _301
REMARK  120  A    between atoms: _301  and  _302
REMARK  121  A    between atoms: _301  and  _304
REMARK  122  A    between atoms: _304  and  _305
REMARK  123  A    between atoms: _308  and  _310
REMARK  124  A    between atoms: _310  and  _311
REMARK  125  A    between atoms: _310  and  _313
REMARK  126  A    between atoms: _313  and  _314
REMARK  127  A    between atoms: _317  and  _319
REMARK  128  A    between atoms: _319  and  _320
REMARK  129  A    between atoms: _319  and  _322
REMARK  130  A    between atoms: _322  and  _323
REMARK  131  A    between atoms: _326  and  _328
REMARK  132  A    between atoms: _328  and  _329
REMARK  133  A    between atoms: _328  and  _331
REMARK  134  A    between atoms: _334  and  _336
REMARK  135  A    between atoms: _336  and  _337
REMARK  136  A    between atoms: _336  and  _339
REMARK  137  A    between atoms: _339  and  _340
REMARK  138  A    between atoms: _340  and  _341
REMARK  139  A    between atoms: _341  and  _342
REMARK  140  A    between atoms: _342  and  _343
REMARK  141  A    between atoms: _347  and  _349
REMARK  142  A    between atoms: _349  and  _350
REMARK  143  A    between atoms: _349  and  _352
REMARK  144  A    between atoms: _352  and  _353
REMARK  145  A    between atoms: _353  and  _354
REMARK  146  A    between atoms: _356  and  _358
REMARK  147  A    between atoms: _358  and  _359
REMARK  148  A    between atoms: _358  and  _361
REMARK  149  A    between atoms: _361  and  _362
REMARK  150  A    between atoms: _365  and  _367
REMARK  151  A    between atoms: _367  and  _368
REMARK  152  A    between atoms: _367  and  _370
REMARK  153  A    between atoms: _370  and  _371
REMARK  154  A    between atoms: _376  and  _378
REMARK  155  A    between atoms: _378  and  _379
REMARK  156  A    between atoms: _381  and  _383
REMARK  157  A    between atoms: _383  and  _384
REMARK  158  A    between atoms: _383  and  _386
REMARK  159  A    between atoms: _386  and  _387
REMARK  160  A    between atoms: _390  and  _392
REMARK  161  A    between atoms: _392  and  _393
REMARK  162  A    between atoms: _395  and  _397
REMARK  163  A    between atoms: _397  and  _398
REMARK  164  A    between atoms: _400  and  _402
REMARK  165  A    between atoms: _402  and  _403
REMARK  166  A    between atoms: _402  and  _405
REMARK  167  A    between atoms: _405  and  _406
REMARK  168  A    between atoms: _412  and  _414
REMARK  169  A    between atoms: _414  and  _415
REMARK  170  A    between atoms: _414  and  _417
REMARK  171  A    between atoms: _417  and  _418
REMARK  172  A    between atoms: _421  and  _423
REMARK  173  A    between atoms: _423  and  _424
REMARK  174  A    between atoms: _423  and  _426
REMARK  175  A    between atoms: _429  and  _431
REMARK  176  A    between atoms: _431  and  _432
REMARK  177  A    between atoms: _431  and  _434
REMARK  178  A    between atoms: _434  and  _435
REMARK  179  A    between atoms: _439  and  _440
REMARK  180  A    between atoms: _445  and  _447
REMARK  181  A    between atoms: _447  and  _448
REMARK  182  A    between atoms: _447  and  _450
REMARK  183  A    between atoms: _450  and  _451
REMARK  184  A    between atoms: _455  and  _456
REMARK  185  A    between atoms: _461  and  _463
REMARK  186  A    between atoms: _463  and  _464
REMARK  187  A    between atoms: _463  and  _466
REMARK  188  A    between atoms: _469  and  _471
REMARK  189  A    between atoms: _471  and  _472
REMARK  190  A    between atoms: _471  and  _474
REMARK  191  A    between atoms: _474  and  _475
REMARK  192  A    between atoms: _480  and  _482
REMARK  193  A    between atoms: _482  and  _483
REMARK  194  A    between atoms: _482  and  _485
REMARK  195  A    between atoms: _485  and  _486
REMARK  196  A    between atoms: _489  and  _491
REMARK  197  A    between atoms: _491  and  _492
REMARK  198  A    between atoms: _491  and  _494
REMARK  199  A    between atoms: _494  and  _495
REMARK  200  A    between atoms: _498  and  _500
REMARK  201  A    between atoms: _500  and  _501
REMARK  202  A    between atoms: _503  and  _505
REMARK  203  A    between atoms: _505  and  _506
REMARK  204  A    between atoms: _505  and  _508
REMARK  205  A    between atoms: _508  and  _509
REMARK  206  A    between atoms: _509  and  _510
REMARK  207  A    between atoms: _510  and  _511
REMARK  208  A    between atoms: _520  and  _522
REMARK  209  A    between atoms: _522  and  _523
REMARK  210  A    between atoms: _522  and  _525
REMARK  211  A    between atoms: _525  and  _526
REMARK                            x       y       z     vdW  Elec       q    Type
REMARK                         _______ _______ _______ _____ _____    ______ ____
ROOT
ATOM      1  O   HOH     1      41.563  24.516  55.940  0.00  0.00    +0.000 OA
ENDROOT
TORSDOF 0
REMARK  Name = ../refined-set-2016/1a9m/1a9m_pocket.pdb
REMARK  211 active torsions:
REMARK  status: ('A' for Active; 'I' for Inactive)
REMARK    1  A    between atoms: _1  and  _3
REMARK    2  A    between atoms: _3  and  _4
REMARK    3  A    between atoms: _3  and  _6
REMARK    4  A    between atoms: _6  and  _7
REMARK    5  A    between atoms: _7  and  _8
REMARK    6  A    between atoms: _8  and  _9
REMARK    7  A    between atoms: _18  and  _20
REMARK    8  A    between atoms: _20  and  _21
REMARK    9  A    between atoms: _20  and  _23
REMARK   10  A    between atoms: _23  and  _24
REMARK   11  A    between atoms: _27  and  _29
REMARK   12  A    between atoms: _29  and  _30
REMARK   13  A    between atoms: _29  and  _32
REMARK   14  A    between atoms: _32  and  _33
REMARK   15  A    between atoms: _36  and  _38
REMARK   16  A    between atoms: _38  and  _39
REMARK   17  A    between atoms: _38  and  _41
REMARK   18  A    between atoms: _41  and  _42
REMARK   19  A    between atoms: _45  and  _47
REMARK   20  A    between atoms: _47  and  _48
REMARK   21  A    between atoms: _47  and  _50
REMARK   22  A    between atoms: _50  and  _51
REMARK   23  A    between atoms: _54  and  _56
REMARK   24  A    between atoms: _56  and  _57
REMARK   25  A    between atoms: _56  and  _59
REMARK   26  A    between atoms: _59  and  _60
REMARK   27  A    between atoms: _63  and  _65
REMARK   28  A    between atoms: _65  and  _66
REMARK   29  A    between atoms: _68  and  _70
REMARK   30  A    between atoms: _70  and  _71
REMARK   31  A    between atoms: _74  and  _76
REMARK   32  A    between atoms: _76  and  _77
REMARK   33  A    between atoms: _76  and  _79
REMARK   34  A    between atoms: _79  and  _80
REMARK   35  A    between atoms: _83  and  _85
REMARK   36  A    between atoms: _85  and  _86
REMARK   37  A    between atoms: _85  and  _88
REMARK   38  A    between atoms: _88  and  _89
REMARK   39  A    between atoms: _92  and  _94
REMARK   40  A    between atoms: _94  and  _95
REMARK   41  A    between atoms: _94  and  _97
REMARK   42  A    between atoms: _97  and  _98
REMARK   43  A    between atoms: _101  and  _103
REMARK   44  A    between atoms: _103  and  _104
REMARK   45  A    between atoms: _103  and  _106
REMARK   46  A    between atoms: _109  and  _111
REMARK   47  A    between atoms: _111  and  _112
REMARK   48  A    between atoms: _111  and  _114
REMARK   49  A    between atoms: _114  and  _115
REMARK   50  A    between atoms: _118  and  _120
REMARK   51  A    between atoms: _120  and  _121
REMARK   52  A    between atoms: _120  and  _123
REMARK   53  A    between atoms: _123  and  _124
REMARK   54  A    between atoms: _129  and  _131
REMARK   55  A    between atoms: _131  and  _132
REMARK   56  A    between atoms: _134  and  _136
REMARK   57  A    between atoms: _136  and  _137
REMARK   58  A    between atoms: _136  and  _139
REMARK   59  A    between atoms: _139  and  _140
REMARK   60  A    between atoms: _143  and  _145
REMARK   61  A    between atoms: _145  and  _146
REMARK   62  A    between atoms: _148  and  _150
REMARK   63  A    between atoms: _150  and  _151
REMARK   64  A    between atoms: _153  and  _155
REMARK   65  A    between atoms: _155  and  _156
REMARK   66  A    between atoms: _155  and  _158
REMARK   67  A    between atoms: _158  and  _159
REMARK   68  A    between atoms: _163  and  _164
REMARK   69  A    between atoms: _169  and  _171
REMARK   70  A    between atoms: _171  and  _172
REMARK   71  A    between atoms: _171  and  _174
REMARK   72  A    between atoms: _174  and  _175
REMARK   73  A    between atoms: _179  and  _180
REMARK   74  A    between atoms: _185  and  _187
REMARK   75  A    between atoms: _187  and  _188
REMARK   76  A    between atoms: _187  and  _190
REMARK   77  A    between atoms: _193  and  _195
REMARK   78  A    between atoms: _195  and  _196
REMARK   79  A    between atoms: _195  and  _198
REMARK   80  A    between atoms: _198  and  _199
REMARK   81  A    between atoms: _204  and  _206
REMARK   82  A    between atoms: _206  and  _207
REMARK   83  A    between atoms: _206  and  _209
REMARK   84  A    between atoms: _209  and  _210
REMARK   85  A    between atoms: _213  and  _215
REMARK   86  A    between atoms: _215  and  _216
REMARK   87  A    between atoms: _218  and  _220
REMARK   88  A    between atoms: _220  and  _221
REMARK   89  A    between atoms: _220  and  _223
REMARK   90  A    between atoms: _223  and  _224
REMARK   91  A    between atoms: _224  and  _225
REMARK   92  A    between atoms: _225  and  _226
REMARK   93  A    between atoms: _235  and  _237
REMARK   94  A    between atoms: _237  and  _238
REMARK   95  A    between atoms: _237  and  _240
REMARK   96  A    between atoms: _240  and  _241
REMARK   97  A    between atoms: _241  and  _242
REMARK   98  A    between atoms: _242  and  _243
REMARK   99  A    between atoms: _252  and  _254
REMARK  100  A    between atoms: _254  and  _255
REMARK  101  A    between atoms: _254  and  _257
REMARK  102  A    between atoms: _257  and  _258
REMARK  103  A    between atoms: _261  and  _263
REMARK  104  A    between atoms: _263  and  _264
REMARK  105  A    between atoms: _263  and  _266
REMARK  106  A    between atoms: _266  and  _267
REMARK  107  A    between atoms: _270  and  _272
REMARK  108  A    between atoms: _272  and  _273
REMARK  109  A    between atoms: _272  and  _275
REMARK  110  A    between atoms: _275  and  _276
REMARK  111  A    between atoms: _279  and  _281
REMARK  112  A    between atoms: _281  and  _282
REMARK  113  A    between atoms: _281  and  _284
REMARK  114  A    between atoms: _284  and  _285
REMARK  115  A    between atoms: _288  and  _290
REMARK  116  A    between atoms: _290  and  _291
REMARK  117  A    between atoms: _293  and  _295
REMARK  118  A    between atoms: _295  and  _296
REMARK  119  A    between atoms: _299  and  _301
REMARK  120  A    between atoms: _301  and  _302
REMARK  121  A    between atoms: _301  and  _304
REMARK  122  A    between atoms: _304  and  _305
REMARK  123  A    between atoms: _308  and  _310
REMARK  124  A    between atoms: _310  and  _311
REMARK  125  A    between atoms: _310  and  _313
REMARK  126  A    between atoms: _313  and  _314
REMARK  127  A    between atoms: _317  and  _319
REMARK  128  A    between atoms: _319  and  _320
REMARK  129  A    between atoms: _319  and  _322
REMARK  130  A    between atoms: _322  and  _323
REMARK  131  A    between atoms: _326  and  _328
REMARK  132  A    between atoms: _328  and  _329
REMARK  133  A    between atoms: _328  and  _331
REMARK  134  A    between atoms: _334  and  _336
REMARK  135  A    between atoms: _336  and  _337
REMARK  136  A    between atoms: _336  and  _339
REMARK  137  A    between atoms: _339  and  _340
REMARK  138  A    between atoms: _340  and  _341
REMARK  139  A    between atoms: _341  and  _342
REMARK  140  A    between atoms: _342  and  _343
REMARK  141  A    between atoms: _347  and  _349
REMARK  142  A    between atoms: _349  and  _350
REMARK  143  A    between atoms: _349  and  _352
REMARK  144  A    between atoms: _352  and  _353
REMARK  145  A    between atoms: _353  and  _354
REMARK  146  A    between atoms: _356  and  _358
REMARK  147  A    between atoms: _358  and  _359
REMARK  148  A    between atoms: _358  and  _361
REMARK  149  A    between atoms: _361  and  _362
REMARK  150  A    between atoms: _365  and  _367
REMARK  151  A    between atoms: _367  and  _368
REMARK  152  A    between atoms: _367  and  _370
REMARK  153  A    between atoms: _370  and  _371
REMARK  154  A    between atoms: _376  and  _378
REMARK  155  A    between atoms: _378  and  _379
REMARK  156  A    between atoms: _381  and  _383
REMARK  157  A    between atoms: _383  and  _384
REMARK  158  A    between atoms: _383  and  _386
REMARK  159  A    between atoms: _386  and  _387
REMARK  160  A    between atoms: _390  and  _392
REMARK  161  A    between atoms: _392  and  _393
REMARK  162  A    between atoms: _395  and  _397
REMARK  163  A    between atoms: _397  and  _398
REMARK  164  A    between atoms: _400  and  _402
REMARK  165  A    between atoms: _402  and  _403
REMARK  166  A    between atoms: _402  and  _405
REMARK  167  A    between atoms: _405  and  _406
REMARK  168  A    between atoms: _412  and  _414
REMARK  169  A    between atoms: _414  and  _415
REMARK  170  A    between atoms: _414  and  _417
REMARK  171  A    between atoms: _417  and  _418
REMARK  172  A    between atoms: _421  and  _423
REMARK  173  A    between atoms: _423  and  _424
REMARK  174  A    between atoms: _423  and  _426
REMARK  175  A    between atoms: _429  and  _431
REMARK  176  A    between atoms: _431  and  _432
REMARK  177  A    between atoms: _431  and  _434
REMARK  178  A    between atoms: _434  and  _435
REMARK  179  A    between atoms: _439  and  _440
REMARK  180  A    between atoms: _445  and  _447
REMARK  181  A    between atoms: _447  and  _448
REMARK  182  A    between atoms: _447  and  _450
REMARK  183  A    between atoms: _450  and  _451
REMARK  184  A    between atoms: _455  and  _456
REMARK  185  A    between atoms: _461  and  _463
REMARK  186  A    between atoms: _463  and  _464
REMARK  187  A    between atoms: _463  and  _466
REMARK  188  A    between atoms: _469  and  _471
REMARK  189  A    between atoms: _471  and  _472
REMARK  190  A    between atoms: _471  and  _474
REMARK  191  A    between atoms: _474  and  _475
REMARK  192  A    between atoms: _480  and  _482
REMARK  193  A    between atoms: _482  and  _483
REMARK  194  A    between atoms: _482  and  _485
REMARK  195  A    between atoms: _485  and  _486
REMARK  196  A    between atoms: _489  and  _491
REMARK  197  A    between atoms: _491  and  _492
REMARK  198  A    between atoms: _491  and  _494
REMARK  199  A    between atoms: _494  and  _495
REMARK  200  A    between atoms: _498  and  _500
REMARK  201  A    between atoms: _500  and  _501
REMARK  202  A    between atoms: _503  and  _505
REMARK  203  A    between atoms: _505  and  _506
REMARK  204  A    between atoms: _505  and  _508
REMARK  205  A    between atoms: _508  and  _509
REMARK  206  A    between atoms: _509  and  _510
REMARK  207  A    between atoms: _510  and  _511
REMARK  208  A    between atoms: _520  and  _522
REMARK  209  A    between atoms: _522  and  _523
REMARK  210  A    between atoms: _522  and  _525
REMARK  211  A    between atoms: _525  and  _526
REMARK                            x       y       z     vdW  Elec       q    Type
REMARK                         _______ _______ _______ _____ _____    ______ ____
ROOT
ATOM      1  O   HOH     1      35.639   9.659  73.731  0.00  0.00    +0.000 OA
ENDROOT
TORSDOF 0
REMARK  Name = ../refined-set-2016/1a9m/1a9m_pocket.pdb
REMARK  211 active torsions:
REMARK  status: ('A' for Active; 'I' for Inactive)
REMARK    1  A    between atoms: _1  and  _3
REMARK    2  A    between atoms: _3  and  _4
REMARK    3  A    between atoms: _3  and  _6
REMARK    4  A    between atoms: _6  and  _7
REMARK    5  A    between atoms: _7  and  _8
REMARK    6  A    between atoms: _8  and  _9
REMARK    7  A    between atoms: _18  and  _20
REMARK    8  A    between atoms: _20  and  _21
REMARK    9  A    between atoms: _20  and  _23
REMARK   10  A    between atoms: _23  and  _24
REMARK   11  A    between atoms: _27  and  _29
REMARK   12  A    between atoms: _29  and  _30
REMARK   13  A    between atoms: _29  and  _32
REMARK   14  A    between atoms: _32  and  _33
REMARK   15  A    between atoms: _36  and  _38
REMARK   16  A    between atoms: _38  and  _39
REMARK   17  A    between atoms: _38  and  _41
REMARK   18  A    between atoms: _41  and  _42
REMARK   19  A    between atoms: _45  and  _47
REMARK   20  A    between atoms: _47  and  _48
REMARK   21  A    between atoms: _47  and  _50
REMARK   22  A    between atoms: _50  and  _51
REMARK   23  A    between atoms: _54  and  _56
REMARK   24  A    between atoms: _56  and  _57
REMARK   25  A    between atoms: _56  and  _59
REMARK   26  A    between atoms: _59  and  _60
REMARK   27  A    between atoms: _63  and  _65
REMARK   28  A    between atoms: _65  and  _66
REMARK   29  A    between atoms: _68  and  _70
REMARK   30  A    between atoms: _70  and  _71
REMARK   31  A    between atoms: _74  and  _76
REMARK   32  A    between atoms: _76  and  _77
REMARK   33  A    between atoms: _76  and  _79
REMARK   34  A    between atoms: _79  and  _80
REMARK   35  A    between atoms: _83  and  _85
REMARK   36  A    between atoms: _85  and  _86
REMARK   37  A    between atoms: _85  and  _88
REMARK   38  A    between atoms: _88  and  _89
REMARK   39  A    between atoms: _92  and  _94
REMARK   40  A    between atoms: _94  and  _95
REMARK   41  A    between atoms: _94  and  _97
REMARK   42  A    between atoms: _97  and  _98
REMARK   43  A    between atoms: _101  and  _103
REMARK   44  A    between atoms: _103  and  _104
REMARK   45  A    between atoms: _103  and  _106
REMARK   46  A    between atoms: _109  and  _111
REMARK   47  A    between atoms: _111  and  _112
REMARK   48  A    between atoms: _111  and  _114
REMARK   49  A    between atoms: _114  and  _115
REMARK   50  A    between atoms: _118  and  _120
REMARK   51  A    between atoms: _120  and  _121
REMARK   52  A    between atoms: _120  and  _123
REMARK   53  A    between atoms: _123  and  _124
REMARK   54  A    between atoms: _129  and  _131
REMARK   55  A    between atoms: _131  and  _132
REMARK   56  A    between atoms: _134  and  _136
REMARK   57  A    between atoms: _136  and  _137
REMARK   58  A    between atoms: _136  and  _139
REMARK   59  A    between atoms: _139  and  _140
REMARK   60  A    between atoms: _143  and  _145
REMARK   61  A    between atoms: _145  and  _146
REMARK   62  A    between atoms: _148  and  _150
REMARK   63  A    between atoms: _150  and  _151
REMARK   64  A    between atoms: _153  and  _155
REMARK   65  A    between atoms: _155  and  _156
REMARK   66  A    between atoms: _155  and  _158
REMARK   67  A    between atoms: _158  and  _159
REMARK   68  A    between atoms: _163  and  _164
REMARK   69  A    between atoms: _169  and  _171
REMARK   70  A    between atoms: _171  and  _172
REMARK   71  A    between atoms: _171  and  _174
REMARK   72  A    between atoms: _174  and  _175
REMARK   73  A    between atoms: _179  and  _180
REMARK   74  A    between atoms: _185  and  _187
REMARK   75  A    between atoms: _187  and  _188
REMARK   76  A    between atoms: _187  and  _190
REMARK   77  A    between atoms: _193  and  _195
REMARK   78  A    between atoms: _195  and  _196
REMARK   79  A    between atoms: _195  and  _198
REMARK   80  A    between atoms: _198  and  _199
REMARK   81  A    between atoms: _204  and  _206
REMARK   82  A    between atoms: _206  and  _207
REMARK   83  A    between atoms: _206  and  _209
REMARK   84  A    between atoms: _209  and  _210
REMARK   85  A    between atoms: _213  and  _215
REMARK   86  A    between atoms: _215  and  _216
REMARK   87  A    between atoms: _218  and  _220
REMARK   88  A    between atoms: _220  and  _221
REMARK   89  A    between atoms: _220  and  _223
REMARK   90  A    between atoms: _223  and  _224
REMARK   91  A    between atoms: _224  and  _225
REMARK   92  A    between atoms: _225  and  _226
REMARK   93  A    between atoms: _235  and  _237
REMARK   94  A    between atoms: _237  and  _238
REMARK   95  A    between atoms: _237  and  _240
REMARK   96  A    between atoms: _240  and  _241
REMARK   97  A    between atoms: _241  and  _242
REMARK   98  A    between atoms: _242  and  _243
REMARK   99  A    between atoms: _252  and  _254
REMARK  100  A    between atoms: _254  and  _255
REMARK  101  A    between atoms: _254  and  _257
REMARK  102  A    between atoms: _257  and  _258
REMARK  103  A    between atoms: _261  and  _263
REMARK  104  A    between atoms: _263  and  _264
REMARK  105  A    between atoms: _263  and  _266
REMARK  106  A    between atoms: _266  and  _267
REMARK  107  A    between atoms: _270  and  _272
REMARK  108  A    between atoms: _272  and  _273
REMARK  109  A    between atoms: _272  and  _275
REMARK  110  A    between atoms: _275  and  _276
REMARK  111  A    between atoms: _279  and  _281
REMARK  112  A    between atoms: _281  and  _282
REMARK  113  A    between atoms: _281  and  _284
REMARK  114  A    between atoms: _284  and  _285
REMARK  115  A    between atoms: _288  and  _290
REMARK  116  A    between atoms: _290  and  _291
REMARK  117  A    between atoms: _293  and  _295
REMARK  118  A    between atoms: _295  and  _296
REMARK  119  A    between atoms: _299  and  _301
REMARK  120  A    between atoms: _301  and  _302
REMARK  121  A    between atoms: _301  and  _304
REMARK  122  A    between atoms: _304  and  _305
REMARK  123  A    between atoms: _308  and  _310
REMARK  124  A    between atoms: _310  and  _311
REMARK  125  A    between atoms: _310  and  _313
REMARK  126  A    between atoms: _313  and  _314
REMARK  127  A    between atoms: _317  and  _319
REMARK  128  A    between atoms: _319  and  _320
REMARK  129  A    between atoms: _319  and  _322
REMARK  130  A    between atoms: _322  and  _323
REMARK  131  A    between atoms: _326  and  _328
REMARK  132  A    between atoms: _328  and  _329
REMARK  133  A    between atoms: _328  and  _331
REMARK  134  A    between atoms: _334  and  _336
REMARK  135  A    between atoms: _336  and  _337
REMARK  136  A    between atoms: _336  and  _339
REMARK  137  A    between atoms: _339  and  _340
REMARK  138  A    between atoms: _340  and  _341
REMARK  139  A    between atoms: _341  and  _342
REMARK  140  A    between atoms: _342  and  _343
REMARK  141  A    between atoms: _347  and  _349
REMARK  142  A    between atoms: _349  and  _350
REMARK  143  A    between atoms: _349  and  _352
REMARK  144  A    between atoms: _352  and  _353
REMARK  145  A    between atoms: _353  and  _354
REMARK  146  A    between atoms: _356  and  _358
REMARK  147  A    between atoms: _358  and  _359
REMARK  148  A    between atoms: _358  and  _361
REMARK  149  A    between atoms: _361  and  _362
REMARK  150  A    between atoms: _365  and  _367
REMARK  151  A    between atoms: _367  and  _368
REMARK  152  A    between atoms: _367  and  _370
REMARK  153  A    between atoms: _370  and  _371
REMARK  154  A    between atoms: _376  and  _378
REMARK  155  A    between atoms: _378  and  _379
REMARK  156  A    between atoms: _381  and  _383
REMARK  157  A    between atoms: _383  and  _384
REMARK  158  A    between atoms: _383  and  _386
REMARK  159  A    between atoms: _386  and  _387
REMARK  160  A    between atoms: _390  and  _392
REMARK  161  A    between atoms: _392  and  _393
REMARK  162  A    between atoms: _395  and  _397
REMARK  163  A    between atoms: _397  and  _398
REMARK  164  A    between atoms: _400  and  _402
REMARK  165  A    between atoms: _402  and  _403
REMARK  166  A    between atoms: _402  and  _405
REMARK  167  A    between atoms: _405  and  _406
REMARK  168  A    between atoms: _412  and  _414
REMARK  169  A    between atoms: _414  and  _415
REMARK  170  A    between atoms: _414  and  _417
REMARK  171  A    between atoms: _417  and  _418
REMARK  172  A    between atoms: _421  and  _423
REMARK  173  A    between atoms: _423  and  _424
REMARK  174  A    between atoms: _423  and  _426
REMARK  175  A    between atoms: _429  and  _431
REMARK  176  A    between atoms: _431  and  _432
REMARK  177  A    between atoms: _431  and  _434
REMARK  178  A    between atoms: _434  and  _435
REMARK  179  A    between atoms: _439  and  _440
REMARK  180  A    between atoms: _445  and  _447
REMARK  181  A    between atoms: _447  and  _448
REMARK  182  A    between atoms: _447  and  _450
REMARK  183  A    between atoms: _450  and  _451
REMARK  184  A    between atoms: _455  and  _456
REMARK  185  A    between atoms: _461  and  _463
REMARK  186  A    between atoms: _463  and  _464
REMARK  187  A    between atoms: _463  and  _466
REMARK  188  A    between atoms: _469  and  _471
REMARK  189  A    between atoms: _471  and  _472
REMARK  190  A    between atoms: _471  and  _474
REMARK  191  A    between atoms: _474  and  _475
REMARK  192  A    between atoms: _480  and  _482
REMARK  193  A    between atoms: _482  and  _483
REMARK  194  A    between atoms: _482  and  _485
REMARK  195  A    between atoms: _485  and  _486
REMARK  196  A    between atoms: _489  and  _491
REMARK  197  A    between atoms: _491  and  _492
REMARK  198  A    between atoms: _491  and  _494
REMARK  199  A    between atoms: _494  and  _495
REMARK  200  A    between atoms: _498  and  _500
REMARK  201  A    between atoms: _500  and  _501
REMARK  202  A    between atoms: _503  and  _505
REMARK  203  A    between atoms: _505  and  _506
REMARK  204  A    between atoms: _505  and  _508
REMARK  205  A    between atoms: _508  and  _509
REMARK  206  A    between atoms: _509  and  _510
REMARK  207  A    between atoms: _510  and  _511
REMARK  208  A    between atoms: _520  and  _522
REMARK  209  A    between atoms: _522  and  _523
REMARK  210  A    between atoms: _522  and  _525
REMARK  211  A    between atoms: _525  and  _526
REMARK                            x       y       z     vdW  Elec       q    Type
REMARK                         _______ _______ _______ _____ _____    ______ ____
ROOT
ATOM      1  O   HOH     1      36.187  27.722  65.977  0.00  0.00    +0.000 OA
ENDROOT
TORSDOF 0
REMARK  Name = ../refined-set-2016/1a9m/1a9m_pocket.pdb
REMARK  211 active torsions:
REMARK  status: ('A' for Active; 'I' for Inactive)
REMARK    1  A    between atoms: _1  and  _3
REMARK    2  A    between atoms: _3  and  _4
REMARK    3  A    between atoms: _3  and  _6
REMARK    4  A    between atoms: _6  and  _7
REMARK    5  A    between atoms: _7  and  _8
REMARK    6  A    between atoms: _8  and  _9
REMARK    7  A    between atoms: _18  and  _20
REMARK    8  A    between atoms: _20  and  _21
REMARK    9  A    between atoms: _20  and  _23
REMARK   10  A    between atoms: _23  and  _24
REMARK   11  A    between atoms: _27  and  _29
REMARK   12  A    between atoms: _29  and  _30
REMARK   13  A    between atoms: _29  and  _32
REMARK   14  A    between atoms: _32  and  _33
REMARK   15  A    between atoms: _36  and  _38
REMARK   16  A    between atoms: _38  and  _39
REMARK   17  A    between atoms: _38  and  _41
REMARK   18  A    between atoms: _41  and  _42
REMARK   19  A    between atoms: _45  and  _47
REMARK   20  A    between atoms: _47  and  _48
REMARK   21  A    between atoms: _47  and  _50
REMARK   22  A    between atoms: _50  and  _51
REMARK   23  A    between atoms: _54  and  _56
REMARK   24  A    between atoms: _56  and  _57
REMARK   25  A    between atoms: _56  and  _59
REMARK   26  A    between atoms: _59  and  _60
REMARK   27  A    between atoms: _63  and  _65
REMARK   28  A    between atoms: _65  and  _66
REMARK   29  A    between atoms: _68  and  _70
REMARK   30  A    between atoms: _70  and  _71
REMARK   31  A    between atoms: _74  and  _76
REMARK   32  A    between atoms: _76  and  _77
REMARK   33  A    between atoms: _76  and  _79
REMARK   34  A    between atoms: _79  and  _80
REMARK   35  A    between atoms: _83  and  _85
REMARK   36  A    between atoms: _85  and  _86
REMARK   37  A    between atoms: _85  and  _88
REMARK   38  A    between atoms: _88  and  _89
REMARK   39  A    between atoms: _92  and  _94
REMARK   40  A    between atoms: _94  and  _95
REMARK   41  A    between atoms: _94  and  _97
REMARK   42  A    between atoms: _97  and  _98
REMARK   43  A    between atoms: _101  and  _103
REMARK   44  A    between atoms: _103  and  _104
REMARK   45  A    between atoms: _103  and  _106
REMARK   46  A    between atoms: _109  and  _111
REMARK   47  A    between atoms: _111  and  _112
REMARK   48  A    between atoms: _111  and  _114
REMARK   49  A    between atoms: _114  and  _115
REMARK   50  A    between atoms: _118  and  _120
REMARK   51  A    between atoms: _120  and  _121
REMARK   52  A    between atoms: _120  and  _123
REMARK   53  A    between atoms: _123  and  _124
REMARK   54  A    between atoms: _129  and  _131
REMARK   55  A    between atoms: _131  and  _132
REMARK   56  A    between atoms: _134  and  _136
REMARK   57  A    between atoms: _136  and  _137
REMARK   58  A    between atoms: _136  and  _139
REMARK   59  A    between atoms: _139  and  _140
REMARK   60  A    between atoms: _143  and  _145
REMARK   61  A    between atoms: _145  and  _146
REMARK   62  A    between atoms: _148  and  _150
REMARK   63  A    between atoms: _150  and  _151
REMARK   64  A    between atoms: _153  and  _155
REMARK   65  A    between atoms: _155  and  _156
REMARK   66  A    between atoms: _155  and  _158
REMARK   67  A    between atoms: _158  and  _159
REMARK   68  A    between atoms: _163  and  _164
REMARK   69  A    between atoms: _169  and  _171
REMARK   70  A    between atoms: _171  and  _172
REMARK   71  A    between atoms: _171  and  _174
REMARK   72  A    between atoms: _174  and  _175
REMARK   73  A    between atoms: _179  and  _180
REMARK   74  A    between atoms: _185  and  _187
REMARK   75  A    between atoms: _187  and  _188
REMARK   76  A    between atoms: _187  and  _190
REMARK   77  A    between atoms: _193  and  _195
REMARK   78  A    between atoms: _195  and  _196
REMARK   79  A    between atoms: _195  and  _198
REMARK   80  A    between atoms: _198  and  _199
REMARK   81  A    between atoms: _204  and  _206
REMARK   82  A    between atoms: _206  and  _207
REMARK   83  A    between atoms: _206  and  _209
REMARK   84  A    between atoms: _209  and  _210
REMARK   85  A    between atoms: _213  and  _215
REMARK   86  A    between atoms: _215  and  _216
REMARK   87  A    between atoms: _218  and  _220
REMARK   88  A    between atoms: _220  and  _221
REMARK   89  A    between atoms: _220  and  _223
REMARK   90  A    between atoms: _223  and  _224
REMARK   91  A    between atoms: _224  and  _225
REMARK   92  A    between atoms: _225  and  _226
REMARK   93  A    between atoms: _235  and  _237
REMARK   94  A    between atoms: _237  and  _238
REMARK   95  A    between atoms: _237  and  _240
REMARK   96  A    between atoms: _240  and  _241
REMARK   97  A    between atoms: _241  and  _242
REMARK   98  A    between atoms: _242  and  _243
REMARK   99  A    between atoms: _252  and  _254
REMARK  100  A    between atoms: _254  and  _255
REMARK  101  A    between atoms: _254  and  _257
REMARK  102  A    between atoms: _257  and  _258
REMARK  103  A    between atoms: _261  and  _263
REMARK  104  A    between atoms: _263  and  _264
REMARK  105  A    between atoms: _263  and  _266
REMARK  106  A    between atoms: _266  and  _267
REMARK  107  A    between atoms: _270  and  _272
REMARK  108  A    between atoms: _272  and  _273
REMARK  109  A    between atoms: _272  and  _275
REMARK  110  A    between atoms: _275  and  _276
REMARK  111  A    between atoms: _279  and  _281
REMARK  112  A    between atoms: _281  and  _282
REMARK  113  A    between atoms: _281  and  _284
REMARK  114  A    between atoms: _284  and  _285
REMARK  115  A    between atoms: _288  and  _290
REMARK  116  A    between atoms: _290  and  _291
REMARK  117  A    between atoms: _293  and  _295
REMARK  118  A    between atoms: _295  and  _296
REMARK  119  A    between atoms: _299  and  _301
REMARK  120  A    between atoms: _301  and  _302
REMARK  121  A    between atoms: _301  and  _304
REMARK  122  A    between atoms: _304  and  _305
REMARK  123  A    between atoms: _308  and  _310
REMARK  124  A    between atoms: _310  and  _311
REMARK  125  A    between atoms: _310  and  _313
REMARK  126  A    between atoms: _313  and  _314
REMARK  127  A    between atoms: _317  and  _319
REMARK  128  A    between atoms: _319  and  _320
REMARK  129  A    between atoms: _319  and  _322
REMARK  130  A    between atoms: _322  and  _323
REMARK  131  A    between atoms: _326  and  _328
REMARK  132  A    between atoms: _328  and  _329
REMARK  133  A    between atoms: _328  and  _331
REMARK  134  A    between atoms: _334  and  _336
REMARK  135  A    between atoms: _336  and  _337
REMARK  136  A    between atoms: _336  and  _339
REMARK  137  A    between atoms: _339  and  _340
REMARK  138  A    between atoms: _340  and  _341
REMARK  139  A    between atoms: _341  and  _342
REMARK  140  A    between atoms: _342  and  _343
REMARK  141  A    between atoms: _347  and  _349
REMARK  142  A    between atoms: _349  and  _350
REMARK  143  A    between atoms: _349  and  _352
REMARK  144  A    between atoms: _352  and  _353
REMARK  145  A    between atoms: _353  and  _354
REMARK  146  A    between atoms: _356  and  _358
REMARK  147  A    between atoms: _358  and  _359
REMARK  148  A    between atoms: _358  and  _361
REMARK  149  A    between atoms: _361  and  _362
REMARK  150  A    between atoms: _365  and  _367
REMARK  151  A    between atoms: _367  and  _368
REMARK  152  A    between atoms: _367  and  _370
REMARK  153  A    between atoms: _370  and  _371
REMARK  154  A    between atoms: _376  and  _378
REMARK  155  A    between atoms: _378  and  _379
REMARK  156  A    between atoms: _381  and  _383
REMARK  157  A    between atoms: _383  and  _384
REMARK  158  A    between atoms: _383  and  _386
REMARK  159  A    between atoms: _386  and  _387
REMARK  160  A    between atoms: _390  and  _392
REMARK  161  A    between atoms: _392  and  _393
REMARK  162  A    between atoms: _395  and  _397
REMARK  163  A    between atoms: _397  and  _398
REMARK  164  A    between atoms: _400  and  _402
REMARK  165  A    between atoms: _402  and  _403
REMARK  166  A    between atoms: _402  and  _405
REMARK  167  A    between atoms: _405  and  _406
REMARK  168  A    between atoms: _412  and  _414
REMARK  169  A    between atoms: _414  and  _415
REMARK  170  A    between atoms: _414  and  _417
REMARK  171  A    between atoms: _417  and  _418
REMARK  172  A    between atoms: _421  and  _423
REMARK  173  A    between atoms: _423  and  _424
REMARK  174  A    between atoms: _423  and  _426
REMARK  175  A    between atoms: _429  and  _431
REMARK  176  A    between atoms: _431  and  _432
REMARK  177  A    between atoms: _431  and  _434
REMARK  178  A    between atoms: _434  and  _435
REMARK  179  A    between atoms: _439  and  _440
REMARK  180  A    between atoms: _445  and  _447
REMARK  181  A    between atoms: _447  and  _448
REMARK  182  A    between atoms: _447  and  _450
REMARK  183  A    between atoms: _450  and  _451
REMARK  184  A    between atoms: _455  and  _456
REMARK  185  A    between atoms: _461  and  _463
REMARK  186  A    between atoms: _463  and  _464
REMARK  187  A    between atoms: _463  and  _466
REMARK  188  A    between atoms: _469  and  _471
REMARK  189  A    between atoms: _471  and  _472
REMARK  190  A    between atoms: _471  and  _474
REMARK  191  A    between atoms: _474  and  _475
REMARK  192  A    between atoms: _480  and  _482
REMARK  193  A    between atoms: _482  and  _483
REMARK  194  A    between atoms: _482  and  _485
REMARK  195  A    between atoms: _485  and  _486
REMARK  196  A    between atoms: _489  and  _491
REMARK  197  A    between atoms: _491  and  _492
REMARK  198  A    between atoms: _491  and  _494
REMARK  199  A    between atoms: _494  and  _495
REMARK  200  A    between atoms: _498  and  _500
REMARK  201  A    between atoms: _500  and  _501
REMARK  202  A    between atoms: _503  and  _505
REMARK  203  A    between atoms: _505  and  _506
REMARK  204  A    between atoms: _505  and  _508
REMARK  205  A    between atoms: _508  and  _509
REMARK  206  A    between atoms: _509  and  _510
REMARK  207  A    between atoms: _510  and  _511
REMARK  208  A    between atoms: _520  and  _522
REMARK  209  A    between atoms: _522  and  _523
REMARK  210  A    between atoms: _522  and  _525
REMARK  211  A    between atoms: _525  and  _526
REMARK                            x       y       z     vdW  Elec       q    Type
REMARK                         _______ _______ _______ _____ _____    ______ ____
ROOT
ATOM      1  O   HOH     1      39.402   8.603  58.583  0.00  0.00    +0.000 OA
ENDROOT
TORSDOF 0
REMARK  Name = ../refined-set-2016/1a9m/1a9m_pocket.pdb
REMARK  211 active torsions:
REMARK  status: ('A' for Active; 'I' for Inactive)
REMARK    1  A    between atoms: _1  and  _3
REMARK    2  A    between atoms: _3  and  _4
REMARK    3  A    between atoms: _3  and  _6
REMARK    4  A    between atoms: _6  and  _7
REMARK    5  A    between atoms: _7  and  _8
REMARK    6  A    between atoms: _8  and  _9
REMARK    7  A    between atoms: _18  and  _20
REMARK    8  A    between atoms: _20  and  _21
REMARK    9  A    between atoms: _20  and  _23
REMARK   10  A    between atoms: _23  and  _24
REMARK   11  A    between atoms: _27  and  _29
REMARK   12  A    between atoms: _29  and  _30
REMARK   13  A    between atoms: _29  and  _32
REMARK   14  A    between atoms: _32  and  _33
REMARK   15  A    between atoms: _36  and  _38
REMARK   16  A    between atoms: _38  and  _39
REMARK   17  A    between atoms: _38  and  _41
REMARK   18  A    between atoms: _41  and  _42
REMARK   19  A    between atoms: _45  and  _47
REMARK   20  A    between atoms: _47  and  _48
REMARK   21  A    between atoms: _47  and  _50
REMARK   22  A    between atoms: _50  and  _51
REMARK   23  A    between atoms: _54  and  _56
REMARK   24  A    between atoms: _56  and  _57
REMARK   25  A    between atoms: _56  and  _59
REMARK   26  A    between atoms: _59  and  _60
REMARK   27  A    between atoms: _63  and  _65
REMARK   28  A    between atoms: _65  and  _66
REMARK   29  A    between atoms: _68  and  _70
REMARK   30  A    between atoms: _70  and  _71
REMARK   31  A    between atoms: _74  and  _76
REMARK   32  A    between atoms: _76  and  _77
REMARK   33  A    between atoms: _76  and  _79
REMARK   34  A    between atoms: _79  and  _80
REMARK   35  A    between atoms: _83  and  _85
REMARK   36  A    between atoms: _85  and  _86
REMARK   37  A    between atoms: _85  and  _88
REMARK   38  A    between atoms: _88  and  _89
REMARK   39  A    between atoms: _92  and  _94
REMARK   40  A    between atoms: _94  and  _95
REMARK   41  A    between atoms: _94  and  _97
REMARK   42  A    between atoms: _97  and  _98
REMARK   43  A    between atoms: _101  and  _103
REMARK   44  A    between atoms: _103  and  _104
REMARK   45  A    between atoms: _103  and  _106
REMARK   46  A    between atoms: _109  and  _111
REMARK   47  A    between atoms: _111  and  _112
REMARK   48  A    between atoms: _111  and  _114
REMARK   49  A    between atoms: _114  and  _115
REMARK   50  A    between atoms: _118  and  _120
REMARK   51  A    between atoms: _120  and  _121
REMARK   52  A    between atoms: _120  and  _123
REMARK   53  A    between atoms: _123  and  _124
REMARK   54  A    between atoms: _129  and  _131
REMARK   55  A    between atoms: _131  and  _132
REMARK   56  A    between atoms: _134  and  _136
REMARK   57  A    between atoms: _136  and  _137
REMARK   58  A    between atoms: _136  and  _139
REMARK   59  A    between atoms: _139  and  _140
REMARK   60  A    between atoms: _143  and  _145
REMARK   61  A    between atoms: _145  and  _146
REMARK   62  A    between atoms: _148  and  _150
REMARK   63  A    between atoms: _150  and  _151
REMARK   64  A    between atoms: _153  and  _155
REMARK   65  A    between atoms: _155  and  _156
REMARK   66  A    between atoms: _155  and  _158
REMARK   67  A    between atoms: _158  and  _159
REMARK   68  A    between atoms: _163  and  _164
REMARK   69  A    between atoms: _169  and  _171
REMARK   70  A    between atoms: _171  and  _172
REMARK   71  A    between atoms: _171  and  _174
REMARK   72  A    between atoms: _174  and  _175
REMARK   73  A    between atoms: _179  and  _180
REMARK   74  A    between atoms: _185  and  _187
REMARK   75  A    between atoms: _187  and  _188
REMARK   76  A    between atoms: _187  and  _190
REMARK   77  A    between atoms: _193  and  _195
REMARK   78  A    between atoms: _195  and  _196
REMARK   79  A    between atoms: _195  and  _198
REMARK   80  A    between atoms: _198  and  _199
REMARK   81  A    between atoms: _204  and  _206
REMARK   82  A    between atoms: _206  and  _207
REMARK   83  A    between atoms: _206  and  _209
REMARK   84  A    between atoms: _209  and  _210
REMARK   85  A    between atoms: _213  and  _215
REMARK   86  A    between atoms: _215  and  _216
REMARK   87  A    between atoms: _218  and  _220
REMARK   88  A    between atoms: _220  and  _221
REMARK   89  A    between atoms: _220  and  _223
REMARK   90  A    between atoms: _223  and  _224
REMARK   91  A    between atoms: _224  and  _225
REMARK   92  A    between atoms: _225  and  _226
REMARK   93  A    between atoms: _235  and  _237
REMARK   94  A    between atoms: _237  and  _238
REMARK   95  A    between atoms: _237  and  _240
REMARK   96  A    between atoms: _240  and  _241
REMARK   97  A    between atoms: _241  and  _242
REMARK   98  A    between atoms: _242  and  _243
REMARK   99  A    between atoms: _252  and  _254
REMARK  100  A    between atoms: _254  and  _255
REMARK  101  A    between atoms: _254  and  _257
REMARK  102  A    between atoms: _257  and  _258
REMARK  103  A    between atoms: _261  and  _263
REMARK  104  A    between atoms: _263  and  _264
REMARK  105  A    between atoms: _263  and  _266
REMARK  106  A    between atoms: _266  and  _267
REMARK  107  A    between atoms: _270  and  _272
REMARK  108  A    between atoms: _272  and  _273
REMARK  109  A    between atoms: _272  and  _275
REMARK  110  A    between atoms: _275  and  _276
REMARK  111  A    between atoms: _279  and  _281
REMARK  112  A    between atoms: _281  and  _282
REMARK  113  A    between atoms: _281  and  _284
REMARK  114  A    between atoms: _284  and  _285
REMARK  115  A    between atoms: _288  and  _290
REMARK  116  A    between atoms: _290  and  _291
REMARK  117  A    between atoms: _293  and  _295
REMARK  118  A    between atoms: _295  and  _296
REMARK  119  A    between atoms: _299  and  _301
REMARK  120  A    between atoms: _301  and  _302
REMARK  121  A    between atoms: _301  and  _304
REMARK  122  A    between atoms: _304  and  _305
REMARK  123  A    between atoms: _308  and  _310
REMARK  124  A    between atoms: _310  and  _311
REMARK  125  A    between atoms: _310  and  _313
REMARK  126  A    between atoms: _313  and  _314
REMARK  127  A    between atoms: _317  and  _319
REMARK  128  A    between atoms: _319  and  _320
REMARK  129  A    between atoms: _319  and  _322
REMARK  130  A    between atoms: _322  and  _323
REMARK  131  A    between atoms: _326  and  _328
REMARK  132  A    between atoms: _328  and  _329
REMARK  133  A    between atoms: _328  and  _331
REMARK  134  A    between atoms: _334  and  _336
REMARK  135  A    between atoms: _336  and  _337
REMARK  136  A    between atoms: _336  and  _339
REMARK  137  A    between atoms: _339  and  _340
REMARK  138  A    between atoms: _340  and  _341
REMARK  139  A    between atoms: _341  and  _342
REMARK  140  A    between atoms: _342  and  _343
REMARK  141  A    between atoms: _347  and  _349
REMARK  142  A    between atoms: _349  and  _350
REMARK  143  A    between atoms: _349  and  _352
REMARK  144  A    between atoms: _352  and  _353
REMARK  145  A    between atoms: _353  and  _354
REMARK  146  A    between atoms: _356  and  _358
REMARK  147  A    between atoms: _358  and  _359
REMARK  148  A    between atoms: _358  and  _361
REMARK  149  A    between atoms: _361  and  _362
REMARK  150  A    between atoms: _365  and  _367
REMARK  151  A    between atoms: _367  and  _368
REMARK  152  A    between atoms: _367  and  _370
REMARK  153  A    between atoms: _370  and  _371
REMARK  154  A    between atoms: _376  and  _378
REMARK  155  A    between atoms: _378  and  _379
REMARK  156  A    between atoms: _381  and  _383
REMARK  157  A    between atoms: _383  and  _384
REMARK  158  A    between atoms: _383  and  _386
REMARK  159  A    between atoms: _386  and  _387
REMARK  160  A    between atoms: _390  and  _392
REMARK  161  A    between atoms: _392  and  _393
REMARK  162  A    between atoms: _395  and  _397
REMARK  163  A    between atoms: _397  and  _398
REMARK  164  A    between atoms: _400  and  _402
REMARK  165  A    between atoms: _402  and  _403
REMARK  166  A    between atoms: _402  and  _405
REMARK  167  A    between atoms: _405  and  _406
REMARK  168  A    between atoms: _412  and  _414
REMARK  169  A    between atoms: _414  and  _415
REMARK  170  A    between atoms: _414  and  _417
REMARK  171  A    between atoms: _417  and  _418
REMARK  172  A    between atoms: _421  and  _423
REMARK  173  A    between atoms: _423  and  _424
REMARK  174  A    between atoms: _423  and  _426
REMARK  175  A    between atoms: _429  and  _431
REMARK  176  A    between atoms: _431  and  _432
REMARK  177  A    between atoms: _431  and  _434
REMARK  178  A    between atoms: _434  and  _435
REMARK  179  A    between atoms: _439  and  _440
REMARK  180  A    between atoms: _445  and  _447
REMARK  181  A    between atoms: _447  and  _448
REMARK  182  A    between atoms: _447  and  _450
REMARK  183  A    between atoms: _450  and  _451
REMARK  184  A    between atoms: _455  and  _456
REMARK  185  A    between atoms: _461  and  _463
REMARK  186  A    between atoms: _463  and  _464
REMARK  187  A    between atoms: _463  and  _466
REMARK  188  A    between atoms: _469  and  _471
REMARK  189  A    between atoms: _471  and  _472
REMARK  190  A    between atoms: _471  and  _474
REMARK  191  A    between atoms: _474  and  _475
REMARK  192  A    between atoms: _480  and  _482
REMARK  193  A    between atoms: _482  and  _483
REMARK  194  A    between atoms: _482  and  _485
REMARK  195  A    between atoms: _485  and  _486
REMARK  196  A    between atoms: _489  and  _491
REMARK  197  A    between atoms: _491  and  _492
REMARK  198  A    between atoms: _491  and  _494
REMARK  199  A    between atoms: _494  and  _495
REMARK  200  A    between atoms: _498  and  _500
REMARK  201  A    between atoms: _500  and  _501
REMARK  202  A    between atoms: _503  and  _505
REMARK  203  A    between atoms: _505  and  _506
REMARK  204  A    between atoms: _505  and  _508
REMARK  205  A    between atoms: _508  and  _509
REMARK  206  A    between atoms: _509  and  _510
REMARK  207  A    between atoms: _510  and  _511
REMARK  208  A    between atoms: _520  and  _522
REMARK  209  A    between atoms: _522  and  _523
REMARK  210  A    between atoms: _522  and  _525
REMARK  211  A    between atoms: _525  and  _526
REMARK                            x       y       z     vdW  Elec       q    Type
REMARK                         _______ _______ _______ _____ _____    ______ ____
ROOT
ATOM      1  O   HOH     1      40.721  12.345  69.381  0.00  0.00    +0.000 OA
ENDROOT
TORSDOF 0
REMARK  Name = ../refined-set-2016/1a9m/1a9m_pocket.pdb
REMARK  211 active torsions:
REMARK  status: ('A' for Active; 'I' for Inactive)
REMARK    1  A    between atoms: _1  and  _3
REMARK    2  A    between atoms: _3  and  _4
REMARK    3  A    between atoms: _3  and  _6
REMARK    4  A    between atoms: _6  and  _7
REMARK    5  A    between atoms: _7  and  _8
REMARK    6  A    between atoms: _8  and  _9
REMARK    7  A    between atoms: _18  and  _20
REMARK    8  A    between atoms: _20  and  _21
REMARK    9  A    between atoms: _20  and  _23
REMARK   10  A    between atoms: _23  and  _24
REMARK   11  A    between atoms: _27  and  _29
REMARK   12  A    between atoms: _29  and  _30
REMARK   13  A    between atoms: _29  and  _32
REMARK   14  A    between atoms: _32  and  _33
REMARK   15  A    between atoms: _36  and  _38
REMARK   16  A    between atoms: _38  and  _39
REMARK   17  A    between atoms: _38  and  _41
REMARK   18  A    between atoms: _41  and  _42
REMARK   19  A    between atoms: _45  and  _47
REMARK   20  A    between atoms: _47  and  _48
REMARK   21  A    between atoms: _47  and  _50
REMARK   22  A    between atoms: _50  and  _51
REMARK   23  A    between atoms: _54  and  _56
REMARK   24  A    between atoms: _56  and  _57
REMARK   25  A    between atoms: _56  and  _59
REMARK   26  A    between atoms: _59  and  _60
REMARK   27  A    between atoms: _63  and  _65
REMARK   28  A    between atoms: _65  and  _66
REMARK   29  A    between atoms: _68  and  _70
REMARK   30  A    between atoms: _70  and  _71
REMARK   31  A    between atoms: _74  and  _76
REMARK   32  A    between atoms: _76  and  _77
REMARK   33  A    between atoms: _76  and  _79
REMARK   34  A    between atoms: _79  and  _80
REMARK   35  A    between atoms: _83  and  _85
REMARK   36  A    between atoms: _85  and  _86
REMARK   37  A    between atoms: _85  and  _88
REMARK   38  A    between atoms: _88  and  _89
REMARK   39  A    between atoms: _92  and  _94
REMARK   40  A    between atoms: _94  and  _95
REMARK   41  A    between atoms: _94  and  _97
REMARK   42  A    between atoms: _97  and  _98
REMARK   43  A    between atoms: _101  and  _103
REMARK   44  A    between atoms: _103  and  _104
REMARK   45  A    between atoms: _103  and  _106
REMARK   46  A    between atoms: _109  and  _111
REMARK   47  A    between atoms: _111  and  _112
REMARK   48  A    between atoms: _111  and  _114
REMARK   49  A    between atoms: _114  and  _115
REMARK   50  A    between atoms: _118  and  _120
REMARK   51  A    between atoms: _120  and  _121
REMARK   52  A    between atoms: _120  and  _123
REMARK   53  A    between atoms: _123  and  _124
REMARK   54  A    between atoms: _129  and  _131
REMARK   55  A    between atoms: _131  and  _132
REMARK   56  A    between atoms: _134  and  _136
REMARK   57  A    between atoms: _136  and  _137
REMARK   58  A    between atoms: _136  and  _139
REMARK   59  A    between atoms: _139  and  _140
REMARK   60  A    between atoms: _143  and  _145
REMARK   61  A    between atoms: _145  and  _146
REMARK   62  A    between atoms: _148  and  _150
REMARK   63  A    between atoms: _150  and  _151
REMARK   64  A    between atoms: _153  and  _155
REMARK   65  A    between atoms: _155  and  _156
REMARK   66  A    between atoms: _155  and  _158
REMARK   67  A    between atoms: _158  and  _159
REMARK   68  A    between atoms: _163  and  _164
REMARK   69  A    between atoms: _169  and  _171
REMARK   70  A    between atoms: _171  and  _172
REMARK   71  A    between atoms: _171  and  _174
REMARK   72  A    between atoms: _174  and  _175
REMARK   73  A    between atoms: _179  and  _180
REMARK   74  A    between atoms: _185  and  _187
REMARK   75  A    between atoms: _187  and  _188
REMARK   76  A    between atoms: _187  and  _190
REMARK   77  A    between atoms: _193  and  _195
REMARK   78  A    between atoms: _195  and  _196
REMARK   79  A    between atoms: _195  and  _198
REMARK   80  A    between atoms: _198  and  _199
REMARK   81  A    between atoms: _204  and  _206
REMARK   82  A    between atoms: _206  and  _207
REMARK   83  A    between atoms: _206  and  _209
REMARK   84  A    between atoms: _209  and  _210
REMARK   85  A    between atoms: _213  and  _215
REMARK   86  A    between atoms: _215  and  _216
REMARK   87  A    between atoms: _218  and  _220
REMARK   88  A    between atoms: _220  and  _221
REMARK   89  A    between atoms: _220  and  _223
REMARK   90  A    between atoms: _223  and  _224
REMARK   91  A    between atoms: _224  and  _225
REMARK   92  A    between atoms: _225  and  _226
REMARK   93  A    between atoms: _235  and  _237
REMARK   94  A    between atoms: _237  and  _238
REMARK   95  A    between atoms: _237  and  _240
REMARK   96  A    between atoms: _240  and  _241
REMARK   97  A    between atoms: _241  and  _242
REMARK   98  A    between atoms: _242  and  _243
REMARK   99  A    between atoms: _252  and  _254
REMARK  100  A    between atoms: _254  and  _255
REMARK  101  A    between atoms: _254  and  _257
REMARK  102  A    between atoms: _257  and  _258
REMARK  103  A    between atoms: _261  and  _263
REMARK  104  A    between atoms: _263  and  _264
REMARK  105  A    between atoms: _263  and  _266
REMARK  106  A    between atoms: _266  and  _267
REMARK  107  A    between atoms: _270  and  _272
REMARK  108  A    between atoms: _272  and  _273
REMARK  109  A    between atoms: _272  and  _275
REMARK  110  A    between atoms: _275  and  _276
REMARK  111  A    between atoms: _279  and  _281
REMARK  112  A    between atoms: _281  and  _282
REMARK  113  A    between atoms: _281  and  _284
REMARK  114  A    between atoms: _284  and  _285
REMARK  115  A    between atoms: _288  and  _290
REMARK  116  A    between atoms: _290  and  _291
REMARK  117  A    between atoms: _293  and  _295
REMARK  118  A    between atoms: _295  and  _296
REMARK  119  A    between atoms: _299  and  _301
REMARK  120  A    between atoms: _301  and  _302
REMARK  121  A    between atoms: _301  and  _304
REMARK  122  A    between atoms: _304  and  _305
REMARK  123  A    between atoms: _308  and  _310
REMARK  124  A    between atoms: _310  and  _311
REMARK  125  A    between atoms: _310  and  _313
REMARK  126  A    between atoms: _313  and  _314
REMARK  127  A    between atoms: _317  and  _319
REMARK  128  A    between atoms: _319  and  _320
REMARK  129  A    between atoms: _319  and  _322
REMARK  130  A    between atoms: _322  and  _323
REMARK  131  A    between atoms: _326  and  _328
REMARK  132  A    between atoms: _328  and  _329
REMARK  133  A    between atoms: _328  and  _331
REMARK  134  A    between atoms: _334  and  _336
REMARK  135  A    between atoms: _336  and  _337
REMARK  136  A    between atoms: _336  and  _339
REMARK  137  A    between atoms: _339  and  _340
REMARK  138  A    between atoms: _340  and  _341
REMARK  139  A    between atoms: _341  and  _342
REMARK  140  A    between atoms: _342  and  _343
REMARK  141  A    between atoms: _347  and  _349
REMARK  142  A    between atoms: _349  and  _350
REMARK  143  A    between atoms: _349  and  _352
REMARK  144  A    between atoms: _352  and  _353
REMARK  145  A    between atoms: _353  and  _354
REMARK  146  A    between atoms: _356  and  _358
REMARK  147  A    between atoms: _358  and  _359
REMARK  148  A    between atoms: _358  and  _361
REMARK  149  A    between atoms: _361  and  _362
REMARK  150  A    between atoms: _365  and  _367
REMARK  151  A    between atoms: _367  and  _368
REMARK  152  A    between atoms: _367  and  _370
REMARK  153  A    between atoms: _370  and  _371
REMARK  154  A    between atoms: _376  and  _378
REMARK  155  A    between atoms: _378  and  _379
REMARK  156  A    between atoms: _381  and  _383
REMARK  157  A    between atoms: _383  and  _384
REMARK  158  A    between atoms: _383  and  _386
REMARK  159  A    between atoms: _386  and  _387
REMARK  160  A    between atoms: _390  and  _392
REMARK  161  A    between atoms: _392  and  _393
REMARK  162  A    between atoms: _395  and  _397
REMARK  163  A    between atoms: _397  and  _398
REMARK  164  A    between atoms: _400  and  _402
REMARK  165  A    between atoms: _402  and  _403
REMARK  166  A    between atoms: _402  and  _405
REMARK  167  A    between atoms: _405  and  _406
REMARK  168  A    between atoms: _412  and  _414
REMARK  169  A    between atoms: _414  and  _415
REMARK  170  A    between atoms: _414  and  _417
REMARK  171  A    between atoms: _417  and  _418
REMARK  172  A    between atoms: _421  and  _423
REMARK  173  A    between atoms: _423  and  _424
REMARK  174  A    between atoms: _423  and  _426
REMARK  175  A    between atoms: _429  and  _431
REMARK  176  A    between atoms: _431  and  _432
REMARK  177  A    between atoms: _431  and  _434
REMARK  178  A    between atoms: _434  and  _435
REMARK  179  A    between atoms: _439  and  _440
REMARK  180  A    between atoms: _445  and  _447
REMARK  181  A    between atoms: _447  and  _448
REMARK  182  A    between atoms: _447  and  _450
REMARK  183  A    between atoms: _450  and  _451
REMARK  184  A    between atoms: _455  and  _456
REMARK  185  A    between atoms: _461  and  _463
REMARK  186  A    between atoms: _463  and  _464
REMARK  187  A    between atoms: _463  and  _466
REMARK  188  A    between atoms: _469  and  _471
REMARK  189  A    between atoms: _471  and  _472
REMARK  190  A    between atoms: _471  and  _474
REMARK  191  A    between atoms: _474  and  _475
REMARK  192  A    between atoms: _480  and  _482
REMARK  193  A    between atoms: _482  and  _483
REMARK  194  A    between atoms: _482  and  _485
REMARK  195  A    between atoms: _485  and  _486
REMARK  196  A    between atoms: _489  and  _491
REMARK  197  A    between atoms: _491  and  _492
REMARK  198  A    between atoms: _491  and  _494
REMARK  199  A    between atoms: _494  and  _495
REMARK  200  A    between atoms: _498  and  _500
REMARK  201  A    between atoms: _500  and  _501
REMARK  202  A    between atoms: _503  and  _505
REMARK  203  A    between atoms: _505  and  _506
REMARK  204  A    between atoms: _505  and  _508
REMARK  205  A    between atoms: _508  and  _509
REMARK  206  A    between atoms: _509  and  _510
REMARK  207  A    between atoms: _510  and  _511
REMARK  208  A    between atoms: _520  and  _522
REMARK  209  A    between atoms: _522  and  _523
REMARK  210  A    between atoms: _522  and  _525
REMARK  211  A    between atoms: _525  and  _526
REMARK                            x       y       z     vdW  Elec       q    Type
REMARK                         _______ _______ _______ _____ _____    ______ ____
ROOT
ATOM      1  O   HOH     1      48.626  23.635  65.014  0.00  0.00    +0.000 OA
ENDROOT
TORSDOF 0
REMARK  Name = ../refined-set-2016/1a9m/1a9m_pocket.pdb
REMARK  211 active torsions:
REMARK  status: ('A' for Active; 'I' for Inactive)
REMARK    1  A    between atoms: _1  and  _3
REMARK    2  A    between atoms: _3  and  _4
REMARK    3  A    between atoms: _3  and  _6
REMARK    4  A    between atoms: _6  and  _7
REMARK    5  A    between atoms: _7  and  _8
REMARK    6  A    between atoms: _8  and  _9
REMARK    7  A    between atoms: _18  and  _20
REMARK    8  A    between atoms: _20  and  _21
REMARK    9  A    between atoms: _20  and  _23
REMARK   10  A    between atoms: _23  and  _24
REMARK   11  A    between atoms: _27  and  _29
REMARK   12  A    between atoms: _29  and  _30
REMARK   13  A    between atoms: _29  and  _32
REMARK   14  A    between atoms: _32  and  _33
REMARK   15  A    between atoms: _36  and  _38
REMARK   16  A    between atoms: _38  and  _39
REMARK   17  A    between atoms: _38  and  _41
REMARK   18  A    between atoms: _41  and  _42
REMARK   19  A    between atoms: _45  and  _47
REMARK   20  A    between atoms: _47  and  _48
REMARK   21  A    between atoms: _47  and  _50
REMARK   22  A    between atoms: _50  and  _51
REMARK   23  A    between atoms: _54  and  _56
REMARK   24  A    between atoms: _56  and  _57
REMARK   25  A    between atoms: _56  and  _59
REMARK   26  A    between atoms: _59  and  _60
REMARK   27  A    between atoms: _63  and  _65
REMARK   28  A    between atoms: _65  and  _66
REMARK   29  A    between atoms: _68  and  _70
REMARK   30  A    between atoms: _70  and  _71
REMARK   31  A    between atoms: _74  and  _76
REMARK   32  A    between atoms: _76  and  _77
REMARK   33  A    between atoms: _76  and  _79
REMARK   34  A    between atoms: _79  and  _80
REMARK   35  A    between atoms: _83  and  _85
REMARK   36  A    between atoms: _85  and  _86
REMARK   37  A    between atoms: _85  and  _88
REMARK   38  A    between atoms: _88  and  _89
REMARK   39  A    between atoms: _92  and  _94
REMARK   40  A    between atoms: _94  and  _95
REMARK   41  A    between atoms: _94  and  _97
REMARK   42  A    between atoms: _97  and  _98
REMARK   43  A    between atoms: _101  and  _103
REMARK   44  A    between atoms: _103  and  _104
REMARK   45  A    between atoms: _103  and  _106
REMARK   46  A    between atoms: _109  and  _111
REMARK   47  A    between atoms: _111  and  _112
REMARK   48  A    between atoms: _111  and  _114
REMARK   49  A    between atoms: _114  and  _115
REMARK   50  A    between atoms: _118  and  _120
REMARK   51  A    between atoms: _120  and  _121
REMARK   52  A    between atoms: _120  and  _123
REMARK   53  A    between atoms: _123  and  _124
REMARK   54  A    between atoms: _129  and  _131
REMARK   55  A    between atoms: _131  and  _132
REMARK   56  A    between atoms: _134  and  _136
REMARK   57  A    between atoms: _136  and  _137
REMARK   58  A    between atoms: _136  and  _139
REMARK   59  A    between atoms: _139  and  _140
REMARK   60  A    between atoms: _143  and  _145
REMARK   61  A    between atoms: _145  and  _146
REMARK   62  A    between atoms: _148  and  _150
REMARK   63  A    between atoms: _150  and  _151
REMARK   64  A    between atoms: _153  and  _155
REMARK   65  A    between atoms: _155  and  _156
REMARK   66  A    between atoms: _155  and  _158
REMARK   67  A    between atoms: _158  and  _159
REMARK   68  A    between atoms: _163  and  _164
REMARK   69  A    between atoms: _169  and  _171
REMARK   70  A    between atoms: _171  and  _172
REMARK   71  A    between atoms: _171  and  _174
REMARK   72  A    between atoms: _174  and  _175
REMARK   73  A    between atoms: _179  and  _180
REMARK   74  A    between atoms: _185  and  _187
REMARK   75  A    between atoms: _187  and  _188
REMARK   76  A    between atoms: _187  and  _190
REMARK   77  A    between atoms: _193  and  _195
REMARK   78  A    between atoms: _195  and  _196
REMARK   79  A    between atoms: _195  and  _198
REMARK   80  A    between atoms: _198  and  _199
REMARK   81  A    between atoms: _204  and  _206
REMARK   82  A    between atoms: _206  and  _207
REMARK   83  A    between atoms: _206  and  _209
REMARK   84  A    between atoms: _209  and  _210
REMARK   85  A    between atoms: _213  and  _215
REMARK   86  A    between atoms: _215  and  _216
REMARK   87  A    between atoms: _218  and  _220
REMARK   88  A    between atoms: _220  and  _221
REMARK   89  A    between atoms: _220  and  _223
REMARK   90  A    between atoms: _223  and  _224
REMARK   91  A    between atoms: _224  and  _225
REMARK   92  A    between atoms: _225  and  _226
REMARK   93  A    between atoms: _235  and  _237
REMARK   94  A    between atoms: _237  and  _238
REMARK   95  A    between atoms: _237  and  _240
REMARK   96  A    between atoms: _240  and  _241
REMARK   97  A    between atoms: _241  and  _242
REMARK   98  A    between atoms: _242  and  _243
REMARK   99  A    between atoms: _252  and  _254
REMARK  100  A    between atoms: _254  and  _255
REMARK  101  A    between atoms: _254  and  _257
REMARK  102  A    between atoms: _257  and  _258
REMARK  103  A    between atoms: _261  and  _263
REMARK  104  A    between atoms: _263  and  _264
REMARK  105  A    between atoms: _263  and  _266
REMARK  106  A    between atoms: _266  and  _267
REMARK  107  A    between atoms: _270  and  _272
REMARK  108  A    between atoms: _272  and  _273
REMARK  109  A    between atoms: _272  and  _275
REMARK  110  A    between atoms: _275  and  _276
REMARK  111  A    between atoms: _279  and  _281
REMARK  112  A    between atoms: _281  and  _282
REMARK  113  A    between atoms: _281  and  _284
REMARK  114  A    between atoms: _284  and  _285
REMARK  115  A    between atoms: _288  and  _290
REMARK  116  A    between atoms: _290  and  _291
REMARK  117  A    between atoms: _293  and  _295
REMARK  118  A    between atoms: _295  and  _296
REMARK  119  A    between atoms: _299  and  _301
REMARK  120  A    between atoms: _301  and  _302
REMARK  121  A    between atoms: _301  and  _304
REMARK  122  A    between atoms: _304  and  _305
REMARK  123  A    between atoms: _308  and  _310
REMARK  124  A    between atoms: _310  and  _311
REMARK  125  A    between atoms: _310  and  _313
REMARK  126  A    between atoms: _313  and  _314
REMARK  127  A    between atoms: _317  and  _319
REMARK  128  A    between atoms: _319  and  _320
REMARK  129  A    between atoms: _319  and  _322
REMARK  130  A    between atoms: _322  and  _323
REMARK  131  A    between atoms: _326  and  _328
REMARK  132  A    between atoms: _328  and  _329
REMARK  133  A    between atoms: _328  and  _331
REMARK  134  A    between atoms: _334  and  _336
REMARK  135  A    between atoms: _336  and  _337
REMARK  136  A    between atoms: _336  and  _339
REMARK  137  A    between atoms: _339  and  _340
REMARK  138  A    between atoms: _340  and  _341
REMARK  139  A    between atoms: _341  and  _342
REMARK  140  A    between atoms: _342  and  _343
REMARK  141  A    between atoms: _347  and  _349
REMARK  142  A    between atoms: _349  and  _350
REMARK  143  A    between atoms: _349  and  _352
REMARK  144  A    between atoms: _352  and  _353
REMARK  145  A    between atoms: _353  and  _354
REMARK  146  A    between atoms: _356  and  _358
REMARK  147  A    between atoms: _358  and  _359
REMARK  148  A    between atoms: _358  and  _361
REMARK  149  A    between atoms: _361  and  _362
REMARK  150  A    between atoms: _365  and  _367
REMARK  151  A    between atoms: _367  and  _368
REMARK  152  A    between atoms: _367  and  _370
REMARK  153  A    between atoms: _370  and  _371
REMARK  154  A    between atoms: _376  and  _378
REMARK  155  A    between atoms: _378  and  _379
REMARK  156  A    between atoms: _381  and  _383
REMARK  157  A    between atoms: _383  and  _384
REMARK  158  A    between atoms: _383  and  _386
REMARK  159  A    between atoms: _386  and  _387
REMARK  160  A    between atoms: _390  and  _392
REMARK  161  A    between atoms: _392  and  _393
REMARK  162  A    between atoms: _395  and  _397
REMARK  163  A    between atoms: _397  and  _398
REMARK  164  A    between atoms: _400  and  _402
REMARK  165  A    between atoms: _402  and  _403
REMARK  166  A    between atoms: _402  and  _405
REMARK  167  A    between atoms: _405  and  _406
REMARK  168  A    between atoms: _412  and  _414
REMARK  169  A    between atoms: _414  and  _415
REMARK  170  A    between atoms: _414  and  _417
REMARK  171  A    between atoms: _417  and  _418
REMARK  172  A    between atoms: _421  and  _423
REMARK  173  A    between atoms: _423  and  _424
REMARK  174  A    between atoms: _423  and  _426
REMARK  175  A    between atoms: _429  and  _431
REMARK  176  A    between atoms: _431  and  _432
REMARK  177  A    between atoms: _431  and  _434
REMARK  178  A    between atoms: _434  and  _435
REMARK  179  A    between atoms: _439  and  _440
REMARK  180  A    between atoms: _445  and  _447
REMARK  181  A    between atoms: _447  and  _448
REMARK  182  A    between atoms: _447  and  _450
REMARK  183  A    between atoms: _450  and  _451
REMARK  184  A    between atoms: _455  and  _456
REMARK  185  A    between atoms: _461  and  _463
REMARK  186  A    between atoms: _463  and  _464
REMARK  187  A    between atoms: _463  and  _466
REMARK  188  A    between atoms: _469  and  _471
REMARK  189  A    between atoms: _471  and  _472
REMARK  190  A    between atoms: _471  and  _474
REMARK  191  A    between atoms: _474  and  _475
REMARK  192  A    between atoms: _480  and  _482
REMARK  193  A    between atoms: _482  and  _483
REMARK  194  A    between atoms: _482  and  _485
REMARK  195  A    between atoms: _485  and  _486
REMARK  196  A    between atoms: _489  and  _491
REMARK  197  A    between atoms: _491  and  _492
REMARK  198  A    between atoms: _491  and  _494
REMARK  199  A    between atoms: _494  and  _495
REMARK  200  A    between atoms: _498  and  _500
REMARK  201  A    between atoms: _500  and  _501
REMARK  202  A    between atoms: _503  and  _505
REMARK  203  A    between atoms: _505  and  _506
REMARK  204  A    between atoms: _505  and  _508
REMARK  205  A    between atoms: _508  and  _509
REMARK  206  A    between atoms: _509  and  _510
REMARK  207  A    between atoms: _510  and  _511
REMARK  208  A    between atoms: _520  and  _522
REMARK  209  A    between atoms: _522  and  _523
REMARK  210  A    between atoms: _522  and  _525
REMARK  211  A    between atoms: _525  and  _526
REMARK                            x       y       z     vdW  Elec       q    Type
REMARK                         _______ _______ _______ _____ _____    ______ ____
ROOT
ATOM      1  O   HOH     1      49.268  27.487  64.161  0.00  0.00    +0.000 OA
ENDROOT
TORSDOF 0
REMARK  Name = ../refined-set-2016/1a9m/1a9m_pocket.pdb
REMARK  211 active torsions:
REMARK  status: ('A' for Active; 'I' for Inactive)
REMARK    1  A    between atoms: _1  and  _3
REMARK    2  A    between atoms: _3  and  _4
REMARK    3  A    between atoms: _3  and  _6
REMARK    4  A    between atoms: _6  and  _7
REMARK    5  A    between atoms: _7  and  _8
REMARK    6  A    between atoms: _8  and  _9
REMARK    7  A    between atoms: _18  and  _20
REMARK    8  A    between atoms: _20  and  _21
REMARK    9  A    between atoms: _20  and  _23
REMARK   10  A    between atoms: _23  and  _24
REMARK   11  A    between atoms: _27  and  _29
REMARK   12  A    between atoms: _29  and  _30
REMARK   13  A    between atoms: _29  and  _32
REMARK   14  A    between atoms: _32  and  _33
REMARK   15  A    between atoms: _36  and  _38
REMARK   16  A    between atoms: _38  and  _39
REMARK   17  A    between atoms: _38  and  _41
REMARK   18  A    between atoms: _41  and  _42
REMARK   19  A    between atoms: _45  and  _47
REMARK   20  A    between atoms: _47  and  _48
REMARK   21  A    between atoms: _47  and  _50
REMARK   22  A    between atoms: _50  and  _51
REMARK   23  A    between atoms: _54  and  _56
REMARK   24  A    between atoms: _56  and  _57
REMARK   25  A    between atoms: _56  and  _59
REMARK   26  A    between atoms: _59  and  _60
REMARK   27  A    between atoms: _63  and  _65
REMARK   28  A    between atoms: _65  and  _66
REMARK   29  A    between atoms: _68  and  _70
REMARK   30  A    between atoms: _70  and  _71
REMARK   31  A    between atoms: _74  and  _76
REMARK   32  A    between atoms: _76  and  _77
REMARK   33  A    between atoms: _76  and  _79
REMARK   34  A    between atoms: _79  and  _80
REMARK   35  A    between atoms: _83  and  _85
REMARK   36  A    between atoms: _85  and  _86
REMARK   37  A    between atoms: _85  and  _88
REMARK   38  A    between atoms: _88  and  _89
REMARK   39  A    between atoms: _92  and  _94
REMARK   40  A    between atoms: _94  and  _95
REMARK   41  A    between atoms: _94  and  _97
REMARK   42  A    between atoms: _97  and  _98
REMARK   43  A    between atoms: _101  and  _103
REMARK   44  A    between atoms: _103  and  _104
REMARK   45  A    between atoms: _103  and  _106
REMARK   46  A    between atoms: _109  and  _111
REMARK   47  A    between atoms: _111  and  _112
REMARK   48  A    between atoms: _111  and  _114
REMARK   49  A    between atoms: _114  and  _115
REMARK   50  A    between atoms: _118  and  _120
REMARK   51  A    between atoms: _120  and  _121
REMARK   52  A    between atoms: _120  and  _123
REMARK   53  A    between atoms: _123  and  _124
REMARK   54  A    between atoms: _129  and  _131
REMARK   55  A    between atoms: _131  and  _132
REMARK   56  A    between atoms: _134  and  _136
REMARK   57  A    between atoms: _136  and  _137
REMARK   58  A    between atoms: _136  and  _139
REMARK   59  A    between atoms: _139  and  _140
REMARK   60  A    between atoms: _143  and  _145
REMARK   61  A    between atoms: _145  and  _146
REMARK   62  A    between atoms: _148  and  _150
REMARK   63  A    between atoms: _150  and  _151
REMARK   64  A    between atoms: _153  and  _155
REMARK   65  A    between atoms: _155  and  _156
REMARK   66  A    between atoms: _155  and  _158
REMARK   67  A    between atoms: _158  and  _159
REMARK   68  A    between atoms: _163  and  _164
REMARK   69  A    between atoms: _169  and  _171
REMARK   70  A    between atoms: _171  and  _172
REMARK   71  A    between atoms: _171  and  _174
REMARK   72  A    between atoms: _174  and  _175
REMARK   73  A    between atoms: _179  and  _180
REMARK   74  A    between atoms: _185  and  _187
REMARK   75  A    between atoms: _187  and  _188
REMARK   76  A    between atoms: _187  and  _190
REMARK   77  A    between atoms: _193  and  _195
REMARK   78  A    between atoms: _195  and  _196
REMARK   79  A    between atoms: _195  and  _198
REMARK   80  A    between atoms: _198  and  _199
REMARK   81  A    between atoms: _204  and  _206
REMARK   82  A    between atoms: _206  and  _207
REMARK   83  A    between atoms: _206  and  _209
REMARK   84  A    between atoms: _209  and  _210
REMARK   85  A    between atoms: _213  and  _215
REMARK   86  A    between atoms: _215  and  _216
REMARK   87  A    between atoms: _218  and  _220
REMARK   88  A    between atoms: _220  and  _221
REMARK   89  A    between atoms: _220  and  _223
REMARK   90  A    between atoms: _223  and  _224
REMARK   91  A    between atoms: _224  and  _225
REMARK   92  A    between atoms: _225  and  _226
REMARK   93  A    between atoms: _235  and  _237
REMARK   94  A    between atoms: _237  and  _238
REMARK   95  A    between atoms: _237  and  _240
REMARK   96  A    between atoms: _240  and  _241
REMARK   97  A    between atoms: _241  and  _242
REMARK   98  A    between atoms: _242  and  _243
REMARK   99  A    between atoms: _252  and  _254
REMARK  100  A    between atoms: _254  and  _255
REMARK  101  A    between atoms: _254  and  _257
REMARK  102  A    between atoms: _257  and  _258
REMARK  103  A    between atoms: _261  and  _263
REMARK  104  A    between atoms: _263  and  _264
REMARK  105  A    between atoms: _263  and  _266
REMARK  106  A    between atoms: _266  and  _267
REMARK  107  A    between atoms: _270  and  _272
REMARK  108  A    between atoms: _272  and  _273
REMARK  109  A    between atoms: _272  and  _275
REMARK  110  A    between atoms: _275  and  _276
REMARK  111  A    between atoms: _279  and  _281
REMARK  112  A    between atoms: _281  and  _282
REMARK  113  A    between atoms: _281  and  _284
REMARK  114  A    between atoms: _284  and  _285
REMARK  115  A    between atoms: _288  and  _290
REMARK  116  A    between atoms: _290  and  _291
REMARK  117  A    between atoms: _293  and  _295
REMARK  118  A    between atoms: _295  and  _296
REMARK  119  A    between atoms: _299  and  _301
REMARK  120  A    between atoms: _301  and  _302
REMARK  121  A    between atoms: _301  and  _304
REMARK  122  A    between atoms: _304  and  _305
REMARK  123  A    between atoms: _308  and  _310
REMARK  124  A    between atoms: _310  and  _311
REMARK  125  A    between atoms: _310  and  _313
REMARK  126  A    between atoms: _313  and  _314
REMARK  127  A    between atoms: _317  and  _319
REMARK  128  A    between atoms: _319  and  _320
REMARK  129  A    between atoms: _319  and  _322
REMARK  130  A    between atoms: _322  and  _323
REMARK  131  A    between atoms: _326  and  _328
REMARK  132  A    between atoms: _328  and  _329
REMARK  133  A    between atoms: _328  and  _331
REMARK  134  A    between atoms: _334  and  _336
REMARK  135  A    between atoms: _336  and  _337
REMARK  136  A    between atoms: _336  and  _339
REMARK  137  A    between atoms: _339  and  _340
REMARK  138  A    between atoms: _340  and  _341
REMARK  139  A    between atoms: _341  and  _342
REMARK  140  A    between atoms: _342  and  _343
REMARK  141  A    between atoms: _347  and  _349
REMARK  142  A    between atoms: _349  and  _350
REMARK  143  A    between atoms: _349  and  _352
REMARK  144  A    between atoms: _352  and  _353
REMARK  145  A    between atoms: _353  and  _354
REMARK  146  A    between atoms: _356  and  _358
REMARK  147  A    between atoms: _358  and  _359
REMARK  148  A    between atoms: _358  and  _361
REMARK  149  A    between atoms: _361  and  _362
REMARK  150  A    between atoms: _365  and  _367
REMARK  151  A    between atoms: _367  and  _368
REMARK  152  A    between atoms: _367  and  _370
REMARK  153  A    between atoms: _370  and  _371
REMARK  154  A    between atoms: _376  and  _378
REMARK  155  A    between atoms: _378  and  _379
REMARK  156  A    between atoms: _381  and  _383
REMARK  157  A    between atoms: _383  and  _384
REMARK  158  A    between atoms: _383  and  _386
REMARK  159  A    between atoms: _386  and  _387
REMARK  160  A    between atoms: _390  and  _392
REMARK  161  A    between atoms: _392  and  _393
REMARK  162  A    between atoms: _395  and  _397
REMARK  163  A    between atoms: _397  and  _398
REMARK  164  A    between atoms: _400  and  _402
REMARK  165  A    between atoms: _402  and  _403
REMARK  166  A    between atoms: _402  and  _405
REMARK  167  A    between atoms: _405  and  _406
REMARK  168  A    between atoms: _412  and  _414
REMARK  169  A    between atoms: _414  and  _415
REMARK  170  A    between atoms: _414  and  _417
REMARK  171  A    between atoms: _417  and  _418
REMARK  172  A    between atoms: _421  and  _423
REMARK  173  A    between atoms: _423  and  _424
REMARK  174  A    between atoms: _423  and  _426
REMARK  175  A    between atoms: _429  and  _431
REMARK  176  A    between atoms: _431  and  _432
REMARK  177  A    between atoms: _431  and  _434
REMARK  178  A    between atoms: _434  and  _435
REMARK  179  A    between atoms: _439  and  _440
REMARK  180  A    between atoms: _445  and  _447
REMARK  181  A    between atoms: _447  and  _448
REMARK  182  A    between atoms: _447  and  _450
REMARK  183  A    between atoms: _450  and  _451
REMARK  184  A    between atoms: _455  and  _456
REMARK  185  A    between atoms: _461  and  _463
REMARK  186  A    between atoms: _463  and  _464
REMARK  187  A    between atoms: _463  and  _466
REMARK  188  A    between atoms: _469  and  _471
REMARK  189  A    between atoms: _471  and  _472
REMARK  190  A    between atoms: _471  and  _474
REMARK  191  A    between atoms: _474  and  _475
REMARK  192  A    between atoms: _480  and  _482
REMARK  193  A    between atoms: _482  and  _483
REMARK  194  A    between atoms: _482  and  _485
REMARK  195  A    between atoms: _485  and  _486
REMARK  196  A    between atoms: _489  and  _491
REMARK  197  A    between atoms: _491  and  _492
REMARK  198  A    between atoms: _491  and  _494
REMARK  199  A    between atoms: _494  and  _495
REMARK  200  A    between atoms: _498  and  _500
REMARK  201  A    between atoms: _500  and  _501
REMARK  202  A    between atoms: _503  and  _505
REMARK  203  A    between atoms: _505  and  _506
REMARK  204  A    between atoms: _505  and  _508
REMARK  205  A    between atoms: _508  and  _509
REMARK  206  A    between atoms: _509  and  _510
REMARK  207  A    between atoms: _510  and  _511
REMARK  208  A    between atoms: _520  and  _522
REMARK  209  A    between atoms: _522  and  _523
REMARK  210  A    between atoms: _522  and  _525
REMARK  211  A    between atoms: _525  and  _526
REMARK                            x       y       z     vdW  Elec       q    Type
REMARK                         _______ _______ _______ _____ _____    ______ ____
ROOT
ATOM      1  O   HOH     1      48.031  25.394  67.788  0.00  0.00    +0.000 OA
ENDROOT
TORSDOF 0
REMARK  Name = ../refined-set-2016/1a9m/1a9m_pocket.pdb
REMARK  211 active torsions:
REMARK  status: ('A' for Active; 'I' for Inactive)
REMARK    1  A    between atoms: _1  and  _3
REMARK    2  A    between atoms: _3  and  _4
REMARK    3  A    between atoms: _3  and  _6
REMARK    4  A    between atoms: _6  and  _7
REMARK    5  A    between atoms: _7  and  _8
REMARK    6  A    between atoms: _8  and  _9
REMARK    7  A    between atoms: _18  and  _20
REMARK    8  A    between atoms: _20  and  _21
REMARK    9  A    between atoms: _20  and  _23
REMARK   10  A    between atoms: _23  and  _24
REMARK   11  A    between atoms: _27  and  _29
REMARK   12  A    between atoms: _29  and  _30
REMARK   13  A    between atoms: _29  and  _32
REMARK   14  A    between atoms: _32  and  _33
REMARK   15  A    between atoms: _36  and  _38
REMARK   16  A    between atoms: _38  and  _39
REMARK   17  A    between atoms: _38  and  _41
REMARK   18  A    between atoms: _41  and  _42
REMARK   19  A    between atoms: _45  and  _47
REMARK   20  A    between atoms: _47  and  _48
REMARK   21  A    between atoms: _47  and  _50
REMARK   22  A    between atoms: _50  and  _51
REMARK   23  A    between atoms: _54  and  _56
REMARK   24  A    between atoms: _56  and  _57
REMARK   25  A    between atoms: _56  and  _59
REMARK   26  A    between atoms: _59  and  _60
REMARK   27  A    between atoms: _63  and  _65
REMARK   28  A    between atoms: _65  and  _66
REMARK   29  A    between atoms: _68  and  _70
REMARK   30  A    between atoms: _70  and  _71
REMARK   31  A    between atoms: _74  and  _76
REMARK   32  A    between atoms: _76  and  _77
REMARK   33  A    between atoms: _76  and  _79
REMARK   34  A    between atoms: _79  and  _80
REMARK   35  A    between atoms: _83  and  _85
REMARK   36  A    between atoms: _85  and  _86
REMARK   37  A    between atoms: _85  and  _88
REMARK   38  A    between atoms: _88  and  _89
REMARK   39  A    between atoms: _92  and  _94
REMARK   40  A    between atoms: _94  and  _95
REMARK   41  A    between atoms: _94  and  _97
REMARK   42  A    between atoms: _97  and  _98
REMARK   43  A    between atoms: _101  and  _103
REMARK   44  A    between atoms: _103  and  _104
REMARK   45  A    between atoms: _103  and  _106
REMARK   46  A    between atoms: _109  and  _111
REMARK   47  A    between atoms: _111  and  _112
REMARK   48  A    between atoms: _111  and  _114
REMARK   49  A    between atoms: _114  and  _115
REMARK   50  A    between atoms: _118  and  _120
REMARK   51  A    between atoms: _120  and  _121
REMARK   52  A    between atoms: _120  and  _123
REMARK   53  A    between atoms: _123  and  _124
REMARK   54  A    between atoms: _129  and  _131
REMARK   55  A    between atoms: _131  and  _132
REMARK   56  A    between atoms: _134  and  _136
REMARK   57  A    between atoms: _136  and  _137
REMARK   58  A    between atoms: _136  and  _139
REMARK   59  A    between atoms: _139  and  _140
REMARK   60  A    between atoms: _143  and  _145
REMARK   61  A    between atoms: _145  and  _146
REMARK   62  A    between atoms: _148  and  _150
REMARK   63  A    between atoms: _150  and  _151
REMARK   64  A    between atoms: _153  and  _155
REMARK   65  A    between atoms: _155  and  _156
REMARK   66  A    between atoms: _155  and  _158
REMARK   67  A    between atoms: _158  and  _159
REMARK   68  A    between atoms: _163  and  _164
REMARK   69  A    between atoms: _169  and  _171
REMARK   70  A    between atoms: _171  and  _172
REMARK   71  A    between atoms: _171  and  _174
REMARK   72  A    between atoms: _174  and  _175
REMARK   73  A    between atoms: _179  and  _180
REMARK   74  A    between atoms: _185  and  _187
REMARK   75  A    between atoms: _187  and  _188
REMARK   76  A    between atoms: _187  and  _190
REMARK   77  A    between atoms: _193  and  _195
REMARK   78  A    between atoms: _195  and  _196
REMARK   79  A    between atoms: _195  and  _198
REMARK   80  A    between atoms: _198  and  _199
REMARK   81  A    between atoms: _204  and  _206
REMARK   82  A    between atoms: _206  and  _207
REMARK   83  A    between atoms: _206  and  _209
REMARK   84  A    between atoms: _209  and  _210
REMARK   85  A    between atoms: _213  and  _215
REMARK   86  A    between atoms: _215  and  _216
REMARK   87  A    between atoms: _218  and  _220
REMARK   88  A    between atoms: _220  and  _221
REMARK   89  A    between atoms: _220  and  _223
REMARK   90  A    between atoms: _223  and  _224
REMARK   91  A    between atoms: _224  and  _225
REMARK   92  A    between atoms: _225  and  _226
REMARK   93  A    between atoms: _235  and  _237
REMARK   94  A    between atoms: _237  and  _238
REMARK   95  A    between atoms: _237  and  _240
REMARK   96  A    between atoms: _240  and  _241
REMARK   97  A    between atoms: _241  and  _242
REMARK   98  A    between atoms: _242  and  _243
REMARK   99  A    between atoms: _252  and  _254
REMARK  100  A    between atoms: _254  and  _255
REMARK  101  A    between atoms: _254  and  _257
REMARK  102  A    between atoms: _257  and  _258
REMARK  103  A    between atoms: _261  and  _263
REMARK  104  A    between atoms: _263  and  _264
REMARK  105  A    between atoms: _263  and  _266
REMARK  106  A    between atoms: _266  and  _267
REMARK  107  A    between atoms: _270  and  _272
REMARK  108  A    between atoms: _272  and  _273
REMARK  109  A    between atoms: _272  and  _275
REMARK  110  A    between atoms: _275  and  _276
REMARK  111  A    between atoms: _279  and  _281
REMARK  112  A    between atoms: _281  and  _282
REMARK  113  A    between atoms: _281  and  _284
REMARK  114  A    between atoms: _284  and  _285
REMARK  115  A    between atoms: _288  and  _290
REMARK  116  A    between atoms: _290  and  _291
REMARK  117  A    between atoms: _293  and  _295
REMARK  118  A    between atoms: _295  and  _296
REMARK  119  A    between atoms: _299  and  _301
REMARK  120  A    between atoms: _301  and  _302
REMARK  121  A    between atoms: _301  and  _304
REMARK  122  A    between atoms: _304  and  _305
REMARK  123  A    between atoms: _308  and  _310
REMARK  124  A    between atoms: _310  and  _311
REMARK  125  A    between atoms: _310  and  _313
REMARK  126  A    between atoms: _313  and  _314
REMARK  127  A    between atoms: _317  and  _319
REMARK  128  A    between atoms: _319  and  _320
REMARK  129  A    between atoms: _319  and  _322
REMARK  130  A    between atoms: _322  and  _323
REMARK  131  A    between atoms: _326  and  _328
REMARK  132  A    between atoms: _328  and  _329
REMARK  133  A    between atoms: _328  and  _331
REMARK  134  A    between atoms: _334  and  _336
REMARK  135  A    between atoms: _336  and  _337
REMARK  136  A    between atoms: _336  and  _339
REMARK  137  A    between atoms: _339  and  _340
REMARK  138  A    between atoms: _340  and  _341
REMARK  139  A    between atoms: _341  and  _342
REMARK  140  A    between atoms: _342  and  _343
REMARK  141  A    between atoms: _347  and  _349
REMARK  142  A    between atoms: _349  and  _350
REMARK  143  A    between atoms: _349  and  _352
REMARK  144  A    between atoms: _352  and  _353
REMARK  145  A    between atoms: _353  and  _354
REMARK  146  A    between atoms: _356  and  _358
REMARK  147  A    between atoms: _358  and  _359
REMARK  148  A    between atoms: _358  and  _361
REMARK  149  A    between atoms: _361  and  _362
REMARK  150  A    between atoms: _365  and  _367
REMARK  151  A    between atoms: _367  and  _368
REMARK  152  A    between atoms: _367  and  _370
REMARK  153  A    between atoms: _370  and  _371
REMARK  154  A    between atoms: _376  and  _378
REMARK  155  A    between atoms: _378  and  _379
REMARK  156  A    between atoms: _381  and  _383
REMARK  157  A    between atoms: _383  and  _384
REMARK  158  A    between atoms: _383  and  _386
REMARK  159  A    between atoms: _386  and  _387
REMARK  160  A    between atoms: _390  and  _392
REMARK  161  A    between atoms: _392  and  _393
REMARK  162  A    between atoms: _395  and  _397
REMARK  163  A    between atoms: _397  and  _398
REMARK  164  A    between atoms: _400  and  _402
REMARK  165  A    between atoms: _402  and  _403
REMARK  166  A    between atoms: _402  and  _405
REMARK  167  A    between atoms: _405  and  _406
REMARK  168  A    between atoms: _412  and  _414
REMARK  169  A    between atoms: _414  and  _415
REMARK  170  A    between atoms: _414  and  _417
REMARK  171  A    between atoms: _417  and  _418
REMARK  172  A    between atoms: _421  and  _423
REMARK  173  A    between atoms: _423  and  _424
REMARK  174  A    between atoms: _423  and  _426
REMARK  175  A    between atoms: _429  and  _431
REMARK  176  A    between atoms: _431  and  _432
REMARK  177  A    between atoms: _431  and  _434
REMARK  178  A    between atoms: _434  and  _435
REMARK  179  A    between atoms: _439  and  _440
REMARK  180  A    between atoms: _445  and  _447
REMARK  181  A    between atoms: _447  and  _448
REMARK  182  A    between atoms: _447  and  _450
REMARK  183  A    between atoms: _450  and  _451
REMARK  184  A    between atoms: _455  and  _456
REMARK  185  A    between atoms: _461  and  _463
REMARK  186  A    between atoms: _463  and  _464
REMARK  187  A    between atoms: _463  and  _466
REMARK  188  A    between atoms: _469  and  _471
REMARK  189  A    between atoms: _471  and  _472
REMARK  190  A    between atoms: _471  and  _474
REMARK  191  A    between atoms: _474  and  _475
REMARK  192  A    between atoms: _480  and  _482
REMARK  193  A    between atoms: _482  and  _483
REMARK  194  A    between atoms: _482  and  _485
REMARK  195  A    between atoms: _485  and  _486
REMARK  196  A    between atoms: _489  and  _491
REMARK  197  A    between atoms: _491  and  _492
REMARK  198  A    between atoms: _491  and  _494
REMARK  199  A    between atoms: _494  and  _495
REMARK  200  A    between atoms: _498  and  _500
REMARK  201  A    between atoms: _500  and  _501
REMARK  202  A    between atoms: _503  and  _505
REMARK  203  A    between atoms: _505  and  _506
REMARK  204  A    between atoms: _505  and  _508
REMARK  205  A    between atoms: _508  and  _509
REMARK  206  A    between atoms: _509  and  _510
REMARK  207  A    between atoms: _510  and  _511
REMARK  208  A    between atoms: _520  and  _522
REMARK  209  A    between atoms: _522  and  _523
REMARK  210  A    between atoms: _522  and  _525
REMARK  211  A    between atoms: _525  and  _526
REMARK                            x       y       z     vdW  Elec       q    Type
REMARK                         _______ _______ _______ _____ _____    ______ ____
ROOT
ATOM      1  O   HOH     1      49.766  24.978  61.980  0.00  0.00    +0.000 OA
ENDROOT
TORSDOF 0
