REMARK  Name = ../refined-set-2016/2weh/2weh_pocket.pdb
REMARK  149 active torsions:
REMARK  status: ('A' for Active; 'I' for Inactive)
REMARK    1  A    between atoms: _1  and  _3
REMARK    2  A    between atoms: _3  and  _4
REMARK    3  A    between atoms: _3  and  _6
REMARK    4  A    between atoms: _6  and  _7
REMARK    5  A    between atoms: _17  and  _19
REMARK    6  A    between atoms: _19  and  _20
REMARK    7  A    between atoms: _19  and  _22
REMARK    8  A    between atoms: _22  and  _23
REMARK    9  A    between atoms: _28  and  _29
REMARK   10  A    between atoms: _31  and  _33
REMARK   11  A    between atoms: _33  and  _34
REMARK   12  A    between atoms: _33  and  _36
REMARK   13  A    between atoms: _36  and  _37
REMARK   14  A    between atoms: _40  and  _41
REMARK   15  A    between atoms: _46  and  _48
REMARK   16  A    between atoms: _48  and  _49
REMARK   17  A    between atoms: _48  and  _51
REMARK   18  A    between atoms: _51  and  _52
REMARK   19  A    between atoms: _57  and  _59
REMARK   20  A    between atoms: _59  and  _60
REMARK   21  A    between atoms: _63  and  _65
REMARK   22  A    between atoms: _65  and  _66
REMARK   23  A    between atoms: _65  and  _68
REMARK   24  A    between atoms: _68  and  _69
REMARK   25  A    between atoms: _74  and  _76
REMARK   26  A    between atoms: _76  and  _77
REMARK   27  A    between atoms: _76  and  _79
REMARK   28  A    between atoms: _79  and  _80
REMARK   29  A    between atoms: _83  and  _85
REMARK   30  A    between atoms: _85  and  _86
REMARK   31  A    between atoms: _85  and  _88
REMARK   32  A    between atoms: _88  and  _89
REMARK   33  A    between atoms: _89  and  _90
REMARK   34  A    between atoms: _95  and  _97
REMARK   35  A    between atoms: _97  and  _98
REMARK   36  A    between atoms: _97  and  _100
REMARK   37  A    between atoms: _100  and  _101
REMARK   38  A    between atoms: _107  and  _109
REMARK   39  A    between atoms: _120  and  _123
REMARK   40  A    between atoms: _123  and  _124
REMARK   41  A    between atoms: _132  and  _133
REMARK   42  A    between atoms: _141  and  _143
REMARK   43  A    between atoms: _143  and  _144
REMARK   44  A    between atoms: _143  and  _146
REMARK   45  A    between atoms: _146  and  _147
REMARK   46  A    between atoms: _147  and  _148
REMARK   47  A    between atoms: _151  and  _153
REMARK   48  A    between atoms: _153  and  _154
REMARK   49  A    between atoms: _153  and  _156
REMARK   50  A    between atoms: _156  and  _157
REMARK   51  A    between atoms: _162  and  _164
REMARK   52  A    between atoms: _164  and  _165
REMARK   53  A    between atoms: _164  and  _167
REMARK   54  A    between atoms: _167  and  _168
REMARK   55  A    between atoms: _168  and  _169
REMARK   56  A    between atoms: _172  and  _174
REMARK   57  A    between atoms: _174  and  _175
REMARK   58  A    between atoms: _174  and  _177
REMARK   59  A    between atoms: _177  and  _178
REMARK   60  A    between atoms: _181  and  _183
REMARK   61  A    between atoms: _183  and  _184
REMARK   62  A    between atoms: _183  and  _186
REMARK   63  A    between atoms: _186  and  _187
REMARK   64  A    between atoms: _188  and  ZN_417
REMARK   65  A    between atoms: _192  and  _194
REMARK   66  A    between atoms: _194  and  _195
REMARK   67  A    between atoms: _194  and  _197
REMARK   68  A    between atoms: _197  and  _198
REMARK   69  A    between atoms: _201  and  _203
REMARK   70  A    between atoms: _203  and  _204
REMARK   71  A    between atoms: _203  and  _206
REMARK   72  A    between atoms: _209  and  _211
REMARK   73  A    between atoms: _211  and  _212
REMARK   74  A    between atoms: _211  and  _214
REMARK   75  A    between atoms: _214  and  _215
REMARK   76  A    between atoms: _220  and  _222
REMARK   77  A    between atoms: _222  and  _223
REMARK   78  A    between atoms: _222  and  _225
REMARK   79  A    between atoms: _225  and  _226
REMARK   80  A    between atoms: _232  and  _234
REMARK   81  A    between atoms: _234  and  _235
REMARK   82  A    between atoms: _234  and  _237
REMARK   83  A    between atoms: _240  and  _242
REMARK   84  A    between atoms: _242  and  _243
REMARK   85  A    between atoms: _242  and  _245
REMARK   86  A    between atoms: _245  and  _246
REMARK   87  A    between atoms: _249  and  _251
REMARK   88  A    between atoms: _251  and  _252
REMARK   89  A    between atoms: _255  and  _257
REMARK   90  A    between atoms: _257  and  _258
REMARK   91  A    between atoms: _257  and  _260
REMARK   92  A    between atoms: _263  and  _265
REMARK   93  A    between atoms: _265  and  _266
REMARK   94  A    between atoms: _265  and  _268
REMARK   95  A    between atoms: _268  and  _269
REMARK   96  A    between atoms: _272  and  _274
REMARK   97  A    between atoms: _274  and  _275
REMARK   98  A    between atoms: _277  and  _279
REMARK   99  A    between atoms: _279  and  _280
REMARK  100  A    between atoms: _282  and  _284
REMARK  101  A    between atoms: _284  and  _285
REMARK  102  A    between atoms: _284  and  _287
REMARK  103  A    between atoms: _287  and  _288
REMARK  104  A    between atoms: _290  and  _292
REMARK  105  A    between atoms: _292  and  _293
REMARK  106  A    between atoms: _292  and  _295
REMARK  107  A    between atoms: _295  and  _296
REMARK  108  A    between atoms: _299  and  _301
REMARK  109  A    between atoms: _301  and  _302
REMARK  110  A    between atoms: _301  and  _304
REMARK  111  A    between atoms: _304  and  _305
REMARK  112  A    between atoms: _308  and  _310
REMARK  113  A    between atoms: _310  and  _311
REMARK  114  A    between atoms: _310  and  _313
REMARK  115  A    between atoms: _313  and  _314
REMARK  116  A    between atoms: _318  and  _319
REMARK  117  A    between atoms: _325  and  _326
REMARK  118  A    between atoms: _331  and  _333
REMARK  119  A    between atoms: _333  and  _334
REMARK  120  A    between atoms: _333  and  _336
REMARK  121  A    between atoms: _336  and  _337
REMARK  122  A    between atoms: _340  and  _342
REMARK  123  A    between atoms: _342  and  _343
REMARK  124  A    between atoms: _342  and  _345
REMARK  125  A    between atoms: _345  and  _346
REMARK  126  A    between atoms: _349  and  _351
REMARK  127  A    between atoms: _351  and  _352
REMARK  128  A    between atoms: _351  and  _354
REMARK  129  A    between atoms: _356  and  _358
REMARK  130  A    between atoms: _358  and  _359
REMARK  131  A    between atoms: _358  and  _361
REMARK  132  A    between atoms: _364  and  _366
REMARK  133  A    between atoms: _366  and  _367
REMARK  134  A    between atoms: _366  and  _369
REMARK  135  A    between atoms: _369  and  _370
REMARK  136  A    between atoms: _373  and  _375
REMARK  137  A    between atoms: _375  and  _376
REMARK  138  A    between atoms: _375  and  _378
REMARK  139  A    between atoms: _378  and  _379
REMARK  140  A    between atoms: _389  and  _391
REMARK  141  A    between atoms: _391  and  _392
REMARK  142  A    between atoms: _391  and  _394
REMARK  143  A    between atoms: _394  and  _395
REMARK  144  A    between atoms: _400  and  _402
REMARK  145  A    between atoms: _402  and  _403
REMARK  146  A    between atoms: _402  and  _405
REMARK  147  A    between atoms: _405  and  _406
REMARK  148  A    between atoms: _406  and  _407
REMARK  149  A    between atoms: _407  and  _408
REMARK                            x       y       z     vdW  Elec       q    Type
REMARK                         _______ _______ _______ _____ _____    ______ ____
ROOT
ATOM      1  CG  TRP A   1      26.955   1.841  12.246  0.00  0.00    -0.002 A 
ATOM      2  CD2 TRP A   1      25.630   1.323  12.201  0.00  0.00    +0.013 A 
ATOM      3  CE3 TRP A   1      25.076   0.053  12.466  0.00  0.00    +0.001 A 
ATOM      4  CZ3 TRP A   1      23.672  -0.118  12.297  0.00  0.00    +0.000 A 
ATOM      5  CH2 TRP A   1      22.853   0.961  11.886  0.00  0.00    +0.001 A 
ATOM      6  CZ2 TRP A   1      23.373   2.232  11.669  0.00  0.00    +0.017 A 
ATOM      7  CE2 TRP A   1      24.761   2.399  11.799  0.00  0.00    +0.056 A 
ATOM      8  NE1 TRP A   1      25.535   3.530  11.629  0.00  0.00    -0.352 N 
ATOM      9  HE1 TRP A   1      25.185   4.462  11.327  0.00  0.00    +0.166 HD
ATOM     10  CD1 TRP A   1      26.854   3.223  11.926  0.00  0.00    +0.068 A 
ENDROOT
BRANCH   1  11
ATOM     11  CB  TRP A   1      28.179   1.065  12.649  0.00  0.00    +0.053 C 
BRANCH  11  12
ATOM     12  CA  TRP A   1      28.892   0.364  11.497  0.00  0.00    +0.137 C 
BRANCH  12  13
ATOM     13  N   TRP A   1      29.547   1.337  10.650  0.00  0.00    -0.239 NA
ATOM     14  H   TRP A   1      29.391   2.352  10.814  0.00  0.00    +0.142 HD
ENDBRANCH  12  13
BRANCH  12  15
ATOM     15  C   TRP A   1      27.949  -0.478  10.640  0.00  0.00    +0.224 C 
ATOM     16  O   TRP A   1      27.357   0.027   9.657  0.00  0.00    -0.287 OA
ENDBRANCH  12  15
ENDBRANCH  11  12
ENDBRANCH   1  11
TORSDOF 4
REMARK  Name = ../refined-set-2016/2weh/2weh_pocket.pdb
REMARK  149 active torsions:
REMARK  status: ('A' for Active; 'I' for Inactive)
REMARK    1  A    between atoms: _1  and  _3
REMARK    2  A    between atoms: _3  and  _4
REMARK    3  A    between atoms: _3  and  _6
REMARK    4  A    between atoms: _6  and  _7
REMARK    5  A    between atoms: _17  and  _19
REMARK    6  A    between atoms: _19  and  _20
REMARK    7  A    between atoms: _19  and  _22
REMARK    8  A    between atoms: _22  and  _23
REMARK    9  A    between atoms: _28  and  _29
REMARK   10  A    between atoms: _31  and  _33
REMARK   11  A    between atoms: _33  and  _34
REMARK   12  A    between atoms: _33  and  _36
REMARK   13  A    between atoms: _36  and  _37
REMARK   14  A    between atoms: _40  and  _41
REMARK   15  A    between atoms: _46  and  _48
REMARK   16  A    between atoms: _48  and  _49
REMARK   17  A    between atoms: _48  and  _51
REMARK   18  A    between atoms: _51  and  _52
REMARK   19  A    between atoms: _57  and  _59
REMARK   20  A    between atoms: _59  and  _60
REMARK   21  A    between atoms: _63  and  _65
REMARK   22  A    between atoms: _65  and  _66
REMARK   23  A    between atoms: _65  and  _68
REMARK   24  A    between atoms: _68  and  _69
REMARK   25  A    between atoms: _74  and  _76
REMARK   26  A    between atoms: _76  and  _77
REMARK   27  A    between atoms: _76  and  _79
REMARK   28  A    between atoms: _79  and  _80
REMARK   29  A    between atoms: _83  and  _85
REMARK   30  A    between atoms: _85  and  _86
REMARK   31  A    between atoms: _85  and  _88
REMARK   32  A    between atoms: _88  and  _89
REMARK   33  A    between atoms: _89  and  _90
REMARK   34  A    between atoms: _95  and  _97
REMARK   35  A    between atoms: _97  and  _98
REMARK   36  A    between atoms: _97  and  _100
REMARK   37  A    between atoms: _100  and  _101
REMARK   38  A    between atoms: _107  and  _109
REMARK   39  A    between atoms: _120  and  _123
REMARK   40  A    between atoms: _123  and  _124
REMARK   41  A    between atoms: _132  and  _133
REMARK   42  A    between atoms: _141  and  _143
REMARK   43  A    between atoms: _143  and  _144
REMARK   44  A    between atoms: _143  and  _146
REMARK   45  A    between atoms: _146  and  _147
REMARK   46  A    between atoms: _147  and  _148
REMARK   47  A    between atoms: _151  and  _153
REMARK   48  A    between atoms: _153  and  _154
REMARK   49  A    between atoms: _153  and  _156
REMARK   50  A    between atoms: _156  and  _157
REMARK   51  A    between atoms: _162  and  _164
REMARK   52  A    between atoms: _164  and  _165
REMARK   53  A    between atoms: _164  and  _167
REMARK   54  A    between atoms: _167  and  _168
REMARK   55  A    between atoms: _168  and  _169
REMARK   56  A    between atoms: _172  and  _174
REMARK   57  A    between atoms: _174  and  _175
REMARK   58  A    between atoms: _174  and  _177
REMARK   59  A    between atoms: _177  and  _178
REMARK   60  A    between atoms: _181  and  _183
REMARK   61  A    between atoms: _183  and  _184
REMARK   62  A    between atoms: _183  and  _186
REMARK   63  A    between atoms: _186  and  _187
REMARK   64  A    between atoms: _188  and  ZN_417
REMARK   65  A    between atoms: _192  and  _194
REMARK   66  A    between atoms: _194  and  _195
REMARK   67  A    between atoms: _194  and  _197
REMARK   68  A    between atoms: _197  and  _198
REMARK   69  A    between atoms: _201  and  _203
REMARK   70  A    between atoms: _203  and  _204
REMARK   71  A    between atoms: _203  and  _206
REMARK   72  A    between atoms: _209  and  _211
REMARK   73  A    between atoms: _211  and  _212
REMARK   74  A    between atoms: _211  and  _214
REMARK   75  A    between atoms: _214  and  _215
REMARK   76  A    between atoms: _220  and  _222
REMARK   77  A    between atoms: _222  and  _223
REMARK   78  A    between atoms: _222  and  _225
REMARK   79  A    between atoms: _225  and  _226
REMARK   80  A    between atoms: _232  and  _234
REMARK   81  A    between atoms: _234  and  _235
REMARK   82  A    between atoms: _234  and  _237
REMARK   83  A    between atoms: _240  and  _242
REMARK   84  A    between atoms: _242  and  _243
REMARK   85  A    between atoms: _242  and  _245
REMARK   86  A    between atoms: _245  and  _246
REMARK   87  A    between atoms: _249  and  _251
REMARK   88  A    between atoms: _251  and  _252
REMARK   89  A    between atoms: _255  and  _257
REMARK   90  A    between atoms: _257  and  _258
REMARK   91  A    between atoms: _257  and  _260
REMARK   92  A    between atoms: _263  and  _265
REMARK   93  A    between atoms: _265  and  _266
REMARK   94  A    between atoms: _265  and  _268
REMARK   95  A    between atoms: _268  and  _269
REMARK   96  A    between atoms: _272  and  _274
REMARK   97  A    between atoms: _274  and  _275
REMARK   98  A    between atoms: _277  and  _279
REMARK   99  A    between atoms: _279  and  _280
REMARK  100  A    between atoms: _282  and  _284
REMARK  101  A    between atoms: _284  and  _285
REMARK  102  A    between atoms: _284  and  _287
REMARK  103  A    between atoms: _287  and  _288
REMARK  104  A    between atoms: _290  and  _292
REMARK  105  A    between atoms: _292  and  _293
REMARK  106  A    between atoms: _292  and  _295
REMARK  107  A    between atoms: _295  and  _296
REMARK  108  A    between atoms: _299  and  _301
REMARK  109  A    between atoms: _301  and  _302
REMARK  110  A    between atoms: _301  and  _304
REMARK  111  A    between atoms: _304  and  _305
REMARK  112  A    between atoms: _308  and  _310
REMARK  113  A    between atoms: _310  and  _311
REMARK  114  A    between atoms: _310  and  _313
REMARK  115  A    between atoms: _313  and  _314
REMARK  116  A    between atoms: _318  and  _319
REMARK  117  A    between atoms: _325  and  _326
REMARK  118  A    between atoms: _331  and  _333
REMARK  119  A    between atoms: _333  and  _334
REMARK  120  A    between atoms: _333  and  _336
REMARK  121  A    between atoms: _336  and  _337
REMARK  122  A    between atoms: _340  and  _342
REMARK  123  A    between atoms: _342  and  _343
REMARK  124  A    between atoms: _342  and  _345
REMARK  125  A    between atoms: _345  and  _346
REMARK  126  A    between atoms: _349  and  _351
REMARK  127  A    between atoms: _351  and  _352
REMARK  128  A    between atoms: _351  and  _354
REMARK  129  A    between atoms: _356  and  _358
REMARK  130  A    between atoms: _358  and  _359
REMARK  131  A    between atoms: _358  and  _361
REMARK  132  A    between atoms: _364  and  _366
REMARK  133  A    between atoms: _366  and  _367
REMARK  134  A    between atoms: _366  and  _369
REMARK  135  A    between atoms: _369  and  _370
REMARK  136  A    between atoms: _373  and  _375
REMARK  137  A    between atoms: _375  and  _376
REMARK  138  A    between atoms: _375  and  _378
REMARK  139  A    between atoms: _378  and  _379
REMARK  140  A    between atoms: _389  and  _391
REMARK  141  A    between atoms: _391  and  _392
REMARK  142  A    between atoms: _391  and  _394
REMARK  143  A    between atoms: _394  and  _395
REMARK  144  A    between atoms: _400  and  _402
REMARK  145  A    between atoms: _402  and  _403
REMARK  146  A    between atoms: _402  and  _405
REMARK  147  A    between atoms: _405  and  _406
REMARK  148  A    between atoms: _406  and  _407
REMARK  149  A    between atoms: _407  and  _408
REMARK                            x       y       z     vdW  Elec       q    Type
REMARK                         _______ _______ _______ _____ _____    ______ ____
ROOT
ATOM      1  CG  TYR A   1      23.144  -5.290  11.907  0.00  0.00    -0.020 A 
ATOM      2  CD2 TYR A   1      22.745  -5.261  13.261  0.00  0.00    -0.001 A 
ATOM      3  CE2 TYR A   1      21.888  -4.265  13.732  0.00  0.00    +0.036 A 
ATOM      4  CZ  TYR A   1      21.410  -3.266  12.836  0.00  0.00    +0.134 A 
ATOM      5  CE1 TYR A   1      21.853  -3.232  11.495  0.00  0.00    +0.036 A 
ATOM      6  CD1 TYR A   1      22.708  -4.284  11.048  0.00  0.00    -0.001 A 
ENDROOT
BRANCH   4   7
ATOM      7  OH  TYR A   1      20.558  -2.305  13.278  0.00  0.00    -0.506 OA
ATOM      8  HH  TYR A   1      20.344  -2.468  14.231  0.00  0.00    +0.292 HD
ENDBRANCH   4   7
BRANCH   1   9
ATOM      9  CB  TYR A   1      24.109  -6.352  11.410  0.00  0.00    +0.051 C 
BRANCH   9  10
ATOM     10  CA  TYR A   1      25.612  -5.974  11.619  0.00  0.00    +0.137 C 
BRANCH  10  11
ATOM     11  N   TYR A   1      26.026  -4.821  10.818  0.00  0.00    -0.239 NA
ATOM     12  H   TYR A   1      26.097  -4.917   9.785  0.00  0.00    +0.142 HD
ENDBRANCH  10  11
BRANCH  10  13
ATOM     13  C   TYR A   1      26.484  -7.167  11.243  0.00  0.00    +0.224 C 
ATOM     14  O   TYR A   1      26.138  -8.302  11.570  0.00  0.00    -0.287 OA
ENDBRANCH  10  13
ENDBRANCH   9  10
ENDBRANCH   1   9
TORSDOF 5
REMARK  Name = ../refined-set-2016/2weh/2weh_pocket.pdb
REMARK  149 active torsions:
REMARK  status: ('A' for Active; 'I' for Inactive)
REMARK    1  A    between atoms: _1  and  _3
REMARK    2  A    between atoms: _3  and  _4
REMARK    3  A    between atoms: _3  and  _6
REMARK    4  A    between atoms: _6  and  _7
REMARK    5  A    between atoms: _17  and  _19
REMARK    6  A    between atoms: _19  and  _20
REMARK    7  A    between atoms: _19  and  _22
REMARK    8  A    between atoms: _22  and  _23
REMARK    9  A    between atoms: _28  and  _29
REMARK   10  A    between atoms: _31  and  _33
REMARK   11  A    between atoms: _33  and  _34
REMARK   12  A    between atoms: _33  and  _36
REMARK   13  A    between atoms: _36  and  _37
REMARK   14  A    between atoms: _40  and  _41
REMARK   15  A    between atoms: _46  and  _48
REMARK   16  A    between atoms: _48  and  _49
REMARK   17  A    between atoms: _48  and  _51
REMARK   18  A    between atoms: _51  and  _52
REMARK   19  A    between atoms: _57  and  _59
REMARK   20  A    between atoms: _59  and  _60
REMARK   21  A    between atoms: _63  and  _65
REMARK   22  A    between atoms: _65  and  _66
REMARK   23  A    between atoms: _65  and  _68
REMARK   24  A    between atoms: _68  and  _69
REMARK   25  A    between atoms: _74  and  _76
REMARK   26  A    between atoms: _76  and  _77
REMARK   27  A    between atoms: _76  and  _79
REMARK   28  A    between atoms: _79  and  _80
REMARK   29  A    between atoms: _83  and  _85
REMARK   30  A    between atoms: _85  and  _86
REMARK   31  A    between atoms: _85  and  _88
REMARK   32  A    between atoms: _88  and  _89
REMARK   33  A    between atoms: _89  and  _90
REMARK   34  A    between atoms: _95  and  _97
REMARK   35  A    between atoms: _97  and  _98
REMARK   36  A    between atoms: _97  and  _100
REMARK   37  A    between atoms: _100  and  _101
REMARK   38  A    between atoms: _107  and  _109
REMARK   39  A    between atoms: _120  and  _123
REMARK   40  A    between atoms: _123  and  _124
REMARK   41  A    between atoms: _132  and  _133
REMARK   42  A    between atoms: _141  and  _143
REMARK   43  A    between atoms: _143  and  _144
REMARK   44  A    between atoms: _143  and  _146
REMARK   45  A    between atoms: _146  and  _147
REMARK   46  A    between atoms: _147  and  _148
REMARK   47  A    between atoms: _151  and  _153
REMARK   48  A    between atoms: _153  and  _154
REMARK   49  A    between atoms: _153  and  _156
REMARK   50  A    between atoms: _156  and  _157
REMARK   51  A    between atoms: _162  and  _164
REMARK   52  A    between atoms: _164  and  _165
REMARK   53  A    between atoms: _164  and  _167
REMARK   54  A    between atoms: _167  and  _168
REMARK   55  A    between atoms: _168  and  _169
REMARK   56  A    between atoms: _172  and  _174
REMARK   57  A    between atoms: _174  and  _175
REMARK   58  A    between atoms: _174  and  _177
REMARK   59  A    between atoms: _177  and  _178
REMARK   60  A    between atoms: _181  and  _183
REMARK   61  A    between atoms: _183  and  _184
REMARK   62  A    between atoms: _183  and  _186
REMARK   63  A    between atoms: _186  and  _187
REMARK   64  A    between atoms: _188  and  ZN_417
REMARK   65  A    between atoms: _192  and  _194
REMARK   66  A    between atoms: _194  and  _195
REMARK   67  A    between atoms: _194  and  _197
REMARK   68  A    between atoms: _197  and  _198
REMARK   69  A    between atoms: _201  and  _203
REMARK   70  A    between atoms: _203  and  _204
REMARK   71  A    between atoms: _203  and  _206
REMARK   72  A    between atoms: _209  and  _211
REMARK   73  A    between atoms: _211  and  _212
REMARK   74  A    between atoms: _211  and  _214
REMARK   75  A    between atoms: _214  and  _215
REMARK   76  A    between atoms: _220  and  _222
REMARK   77  A    between atoms: _222  and  _223
REMARK   78  A    between atoms: _222  and  _225
REMARK   79  A    between atoms: _225  and  _226
REMARK   80  A    between atoms: _232  and  _234
REMARK   81  A    between atoms: _234  and  _235
REMARK   82  A    between atoms: _234  and  _237
REMARK   83  A    between atoms: _240  and  _242
REMARK   84  A    between atoms: _242  and  _243
REMARK   85  A    between atoms: _242  and  _245
REMARK   86  A    between atoms: _245  and  _246
REMARK   87  A    between atoms: _249  and  _251
REMARK   88  A    between atoms: _251  and  _252
REMARK   89  A    between atoms: _255  and  _257
REMARK   90  A    between atoms: _257  and  _258
REMARK   91  A    between atoms: _257  and  _260
REMARK   92  A    between atoms: _263  and  _265
REMARK   93  A    between atoms: _265  and  _266
REMARK   94  A    between atoms: _265  and  _268
REMARK   95  A    between atoms: _268  and  _269
REMARK   96  A    between atoms: _272  and  _274
REMARK   97  A    between atoms: _274  and  _275
REMARK   98  A    between atoms: _277  and  _279
REMARK   99  A    between atoms: _279  and  _280
REMARK  100  A    between atoms: _282  and  _284
REMARK  101  A    between atoms: _284  and  _285
REMARK  102  A    between atoms: _284  and  _287
REMARK  103  A    between atoms: _287  and  _288
REMARK  104  A    between atoms: _290  and  _292
REMARK  105  A    between atoms: _292  and  _293
REMARK  106  A    between atoms: _292  and  _295
REMARK  107  A    between atoms: _295  and  _296
REMARK  108  A    between atoms: _299  and  _301
REMARK  109  A    between atoms: _301  and  _302
REMARK  110  A    between atoms: _301  and  _304
REMARK  111  A    between atoms: _304  and  _305
REMARK  112  A    between atoms: _308  and  _310
REMARK  113  A    between atoms: _310  and  _311
REMARK  114  A    between atoms: _310  and  _313
REMARK  115  A    between atoms: _313  and  _314
REMARK  116  A    between atoms: _318  and  _319
REMARK  117  A    between atoms: _325  and  _326
REMARK  118  A    between atoms: _331  and  _333
REMARK  119  A    between atoms: _333  and  _334
REMARK  120  A    between atoms: _333  and  _336
REMARK  121  A    between atoms: _336  and  _337
REMARK  122  A    between atoms: _340  and  _342
REMARK  123  A    between atoms: _342  and  _343
REMARK  124  A    between atoms: _342  and  _345
REMARK  125  A    between atoms: _345  and  _346
REMARK  126  A    between atoms: _349  and  _351
REMARK  127  A    between atoms: _351  and  _352
REMARK  128  A    between atoms: _351  and  _354
REMARK  129  A    between atoms: _356  and  _358
REMARK  130  A    between atoms: _358  and  _359
REMARK  131  A    between atoms: _358  and  _361
REMARK  132  A    between atoms: _364  and  _366
REMARK  133  A    between atoms: _366  and  _367
REMARK  134  A    between atoms: _366  and  _369
REMARK  135  A    between atoms: _369  and  _370
REMARK  136  A    between atoms: _373  and  _375
REMARK  137  A    between atoms: _375  and  _376
REMARK  138  A    between atoms: _375  and  _378
REMARK  139  A    between atoms: _378  and  _379
REMARK  140  A    between atoms: _389  and  _391
REMARK  141  A    between atoms: _391  and  _392
REMARK  142  A    between atoms: _391  and  _394
REMARK  143  A    between atoms: _394  and  _395
REMARK  144  A    between atoms: _400  and  _402
REMARK  145  A    between atoms: _402  and  _403
REMARK  146  A    between atoms: _402  and  _405
REMARK  147  A    between atoms: _405  and  _406
REMARK  148  A    between atoms: _406  and  _407
REMARK  149  A    between atoms: _407  and  _408
REMARK                            x       y       z     vdW  Elec       q    Type
REMARK                         _______ _______ _______ _____ _____    ______ ____
ROOT
ATOM      1  C   SER A   1      18.931  -1.355  23.147  0.00  0.00    +0.244 C 
ATOM      2  N   PRO A   2      18.267  -2.516  22.894  0.00  0.00    -0.273 N 
ATOM      3  CA  PRO A   2      17.072  -3.007  23.602  0.00  0.00    +0.140 C 
ATOM      4  CB  PRO A   2      16.535  -4.047  22.594  0.00  0.00    +0.030 C 
ATOM      5  CG  PRO A   2      17.774  -4.679  22.066  0.00  0.00    +0.024 C 
ATOM      6  CD  PRO A   2      18.613  -3.417  21.766  0.00  0.00    +0.094 C 
ATOM      7  O   SER A   1      19.901  -0.943  22.460  0.00  0.00    -0.273 OA
ENDROOT
BRANCH   3   8
ATOM      8  C   PRO A   2      17.460  -3.708  24.904  0.00  0.00    +0.227 C 
ATOM      9  O   PRO A   2      18.653  -3.760  25.222  0.00  0.00    -0.286 OA
ENDBRANCH   3   8
BRANCH   1  10
ATOM     10  CA  SER A   1      18.380  -0.477  24.288  0.00  0.00    +0.175 C 
BRANCH  10  11
ATOM     11  N   SER A   1      19.395   0.380  24.830  0.00  0.00    -0.236 NA
ATOM     12  H   SER A   1      19.904   0.997  24.165  0.00  0.00    +0.142 HD
ENDBRANCH  10  11
BRANCH  10  13
ATOM     13  CB  SER A   1      17.287   0.391  23.703  0.00  0.00    +0.163 C 
BRANCH  13  14
ATOM     14  OG  SER A   1      16.624   1.057  24.710  0.00  0.00    -0.380 OA
ATOM     15  H   SER A   1      16.221   0.399  25.330  0.00  0.00    +0.211 HD
ENDBRANCH  13  14
ENDBRANCH  10  13
ENDBRANCH   1  10
TORSDOF 5
REMARK  Name = ../refined-set-2016/2weh/2weh_pocket.pdb
REMARK  149 active torsions:
REMARK  status: ('A' for Active; 'I' for Inactive)
REMARK    1  A    between atoms: _1  and  _3
REMARK    2  A    between atoms: _3  and  _4
REMARK    3  A    between atoms: _3  and  _6
REMARK    4  A    between atoms: _6  and  _7
REMARK    5  A    between atoms: _17  and  _19
REMARK    6  A    between atoms: _19  and  _20
REMARK    7  A    between atoms: _19  and  _22
REMARK    8  A    between atoms: _22  and  _23
REMARK    9  A    between atoms: _28  and  _29
REMARK   10  A    between atoms: _31  and  _33
REMARK   11  A    between atoms: _33  and  _34
REMARK   12  A    between atoms: _33  and  _36
REMARK   13  A    between atoms: _36  and  _37
REMARK   14  A    between atoms: _40  and  _41
REMARK   15  A    between atoms: _46  and  _48
REMARK   16  A    between atoms: _48  and  _49
REMARK   17  A    between atoms: _48  and  _51
REMARK   18  A    between atoms: _51  and  _52
REMARK   19  A    between atoms: _57  and  _59
REMARK   20  A    between atoms: _59  and  _60
REMARK   21  A    between atoms: _63  and  _65
REMARK   22  A    between atoms: _65  and  _66
REMARK   23  A    between atoms: _65  and  _68
REMARK   24  A    between atoms: _68  and  _69
REMARK   25  A    between atoms: _74  and  _76
REMARK   26  A    between atoms: _76  and  _77
REMARK   27  A    between atoms: _76  and  _79
REMARK   28  A    between atoms: _79  and  _80
REMARK   29  A    between atoms: _83  and  _85
REMARK   30  A    between atoms: _85  and  _86
REMARK   31  A    between atoms: _85  and  _88
REMARK   32  A    between atoms: _88  and  _89
REMARK   33  A    between atoms: _89  and  _90
REMARK   34  A    between atoms: _95  and  _97
REMARK   35  A    between atoms: _97  and  _98
REMARK   36  A    between atoms: _97  and  _100
REMARK   37  A    between atoms: _100  and  _101
REMARK   38  A    between atoms: _107  and  _109
REMARK   39  A    between atoms: _120  and  _123
REMARK   40  A    between atoms: _123  and  _124
REMARK   41  A    between atoms: _132  and  _133
REMARK   42  A    between atoms: _141  and  _143
REMARK   43  A    between atoms: _143  and  _144
REMARK   44  A    between atoms: _143  and  _146
REMARK   45  A    between atoms: _146  and  _147
REMARK   46  A    between atoms: _147  and  _148
REMARK   47  A    between atoms: _151  and  _153
REMARK   48  A    between atoms: _153  and  _154
REMARK   49  A    between atoms: _153  and  _156
REMARK   50  A    between atoms: _156  and  _157
REMARK   51  A    between atoms: _162  and  _164
REMARK   52  A    between atoms: _164  and  _165
REMARK   53  A    between atoms: _164  and  _167
REMARK   54  A    between atoms: _167  and  _168
REMARK   55  A    between atoms: _168  and  _169
REMARK   56  A    between atoms: _172  and  _174
REMARK   57  A    between atoms: _174  and  _175
REMARK   58  A    between atoms: _174  and  _177
REMARK   59  A    between atoms: _177  and  _178
REMARK   60  A    between atoms: _181  and  _183
REMARK   61  A    between atoms: _183  and  _184
REMARK   62  A    between atoms: _183  and  _186
REMARK   63  A    between atoms: _186  and  _187
REMARK   64  A    between atoms: _188  and  ZN_417
REMARK   65  A    between atoms: _192  and  _194
REMARK   66  A    between atoms: _194  and  _195
REMARK   67  A    between atoms: _194  and  _197
REMARK   68  A    between atoms: _197  and  _198
REMARK   69  A    between atoms: _201  and  _203
REMARK   70  A    between atoms: _203  and  _204
REMARK   71  A    between atoms: _203  and  _206
REMARK   72  A    between atoms: _209  and  _211
REMARK   73  A    between atoms: _211  and  _212
REMARK   74  A    between atoms: _211  and  _214
REMARK   75  A    between atoms: _214  and  _215
REMARK   76  A    between atoms: _220  and  _222
REMARK   77  A    between atoms: _222  and  _223
REMARK   78  A    between atoms: _222  and  _225
REMARK   79  A    between atoms: _225  and  _226
REMARK   80  A    between atoms: _232  and  _234
REMARK   81  A    between atoms: _234  and  _235
REMARK   82  A    between atoms: _234  and  _237
REMARK   83  A    between atoms: _240  and  _242
REMARK   84  A    between atoms: _242  and  _243
REMARK   85  A    between atoms: _242  and  _245
REMARK   86  A    between atoms: _245  and  _246
REMARK   87  A    between atoms: _249  and  _251
REMARK   88  A    between atoms: _251  and  _252
REMARK   89  A    between atoms: _255  and  _257
REMARK   90  A    between atoms: _257  and  _258
REMARK   91  A    between atoms: _257  and  _260
REMARK   92  A    between atoms: _263  and  _265
REMARK   93  A    between atoms: _265  and  _266
REMARK   94  A    between atoms: _265  and  _268
REMARK   95  A    between atoms: _268  and  _269
REMARK   96  A    between atoms: _272  and  _274
REMARK   97  A    between atoms: _274  and  _275
REMARK   98  A    between atoms: _277  and  _279
REMARK   99  A    between atoms: _279  and  _280
REMARK  100  A    between atoms: _282  and  _284
REMARK  101  A    between atoms: _284  and  _285
REMARK  102  A    between atoms: _284  and  _287
REMARK  103  A    between atoms: _287  and  _288
REMARK  104  A    between atoms: _290  and  _292
REMARK  105  A    between atoms: _292  and  _293
REMARK  106  A    between atoms: _292  and  _295
REMARK  107  A    between atoms: _295  and  _296
REMARK  108  A    between atoms: _299  and  _301
REMARK  109  A    between atoms: _301  and  _302
REMARK  110  A    between atoms: _301  and  _304
REMARK  111  A    between atoms: _304  and  _305
REMARK  112  A    between atoms: _308  and  _310
REMARK  113  A    between atoms: _310  and  _311
REMARK  114  A    between atoms: _310  and  _313
REMARK  115  A    between atoms: _313  and  _314
REMARK  116  A    between atoms: _318  and  _319
REMARK  117  A    between atoms: _325  and  _326
REMARK  118  A    between atoms: _331  and  _333
REMARK  119  A    between atoms: _333  and  _334
REMARK  120  A    between atoms: _333  and  _336
REMARK  121  A    between atoms: _336  and  _337
REMARK  122  A    between atoms: _340  and  _342
REMARK  123  A    between atoms: _342  and  _343
REMARK  124  A    between atoms: _342  and  _345
REMARK  125  A    between atoms: _345  and  _346
REMARK  126  A    between atoms: _349  and  _351
REMARK  127  A    between atoms: _351  and  _352
REMARK  128  A    between atoms: _351  and  _354
REMARK  129  A    between atoms: _356  and  _358
REMARK  130  A    between atoms: _358  and  _359
REMARK  131  A    between atoms: _358  and  _361
REMARK  132  A    between atoms: _364  and  _366
REMARK  133  A    between atoms: _366  and  _367
REMARK  134  A    between atoms: _366  and  _369
REMARK  135  A    between atoms: _369  and  _370
REMARK  136  A    between atoms: _373  and  _375
REMARK  137  A    between atoms: _375  and  _376
REMARK  138  A    between atoms: _375  and  _378
REMARK  139  A    between atoms: _378  and  _379
REMARK  140  A    between atoms: _389  and  _391
REMARK  141  A    between atoms: _391  and  _392
REMARK  142  A    between atoms: _391  and  _394
REMARK  143  A    between atoms: _394  and  _395
REMARK  144  A    between atoms: _400  and  _402
REMARK  145  A    between atoms: _402  and  _403
REMARK  146  A    between atoms: _402  and  _405
REMARK  147  A    between atoms: _405  and  _406
REMARK  148  A    between atoms: _406  and  _407
REMARK  149  A    between atoms: _407  and  _408
REMARK                            x       y       z     vdW  Elec       q    Type
REMARK                         _______ _______ _______ _____ _____    ______ ____
ROOT
ATOM      1  CB  ASN A   1      18.594   3.906   5.329  0.00  0.00    +0.110 C 
ENDROOT
BRANCH   1   2
ATOM      2  CG  ASN A   1      18.267   3.006   6.596  0.00  0.00    +0.221 C 
ATOM      3  ND2 ASN A   1      17.678   3.613   7.664  0.00  0.00    -0.329 N 
ATOM      4 HD21 ASN A   1      17.452   3.061   8.516  0.00  0.00    +0.145 HD
ATOM      5 HD22 ASN A   1      17.455   4.628   7.627  0.00  0.00    +0.145 HD
ATOM      6  OD1 ASN A   1      18.547   1.803   6.603  0.00  0.00    -0.275 OA
ENDBRANCH   1   2
BRANCH   1   7
ATOM      7  CA  ASN A   1      18.997   3.057   4.078  0.00  0.00    +0.142 C 
BRANCH   7   8
ATOM      8  N   ASN A   1      17.851   2.196   3.614  0.00  0.00    -0.239 NA
ATOM      9  H   ASN A   1      17.276   1.677   4.308  0.00  0.00    +0.142 HD
ENDBRANCH   7   8
BRANCH   7  10
ATOM     10  C   ASN A   1      20.221   2.199   4.366  0.00  0.00    +0.225 C 
ATOM     11  O   ASN A   1      21.162   2.692   4.930  0.00  0.00    -0.287 OA
ENDBRANCH   7  10
ENDBRANCH   1   7
TORSDOF 4
REMARK  Name = ../refined-set-2016/2weh/2weh_pocket.pdb
REMARK  149 active torsions:
REMARK  status: ('A' for Active; 'I' for Inactive)
REMARK    1  A    between atoms: _1  and  _3
REMARK    2  A    between atoms: _3  and  _4
REMARK    3  A    between atoms: _3  and  _6
REMARK    4  A    between atoms: _6  and  _7
REMARK    5  A    between atoms: _17  and  _19
REMARK    6  A    between atoms: _19  and  _20
REMARK    7  A    between atoms: _19  and  _22
REMARK    8  A    between atoms: _22  and  _23
REMARK    9  A    between atoms: _28  and  _29
REMARK   10  A    between atoms: _31  and  _33
REMARK   11  A    between atoms: _33  and  _34
REMARK   12  A    between atoms: _33  and  _36
REMARK   13  A    between atoms: _36  and  _37
REMARK   14  A    between atoms: _40  and  _41
REMARK   15  A    between atoms: _46  and  _48
REMARK   16  A    between atoms: _48  and  _49
REMARK   17  A    between atoms: _48  and  _51
REMARK   18  A    between atoms: _51  and  _52
REMARK   19  A    between atoms: _57  and  _59
REMARK   20  A    between atoms: _59  and  _60
REMARK   21  A    between atoms: _63  and  _65
REMARK   22  A    between atoms: _65  and  _66
REMARK   23  A    between atoms: _65  and  _68
REMARK   24  A    between atoms: _68  and  _69
REMARK   25  A    between atoms: _74  and  _76
REMARK   26  A    between atoms: _76  and  _77
REMARK   27  A    between atoms: _76  and  _79
REMARK   28  A    between atoms: _79  and  _80
REMARK   29  A    between atoms: _83  and  _85
REMARK   30  A    between atoms: _85  and  _86
REMARK   31  A    between atoms: _85  and  _88
REMARK   32  A    between atoms: _88  and  _89
REMARK   33  A    between atoms: _89  and  _90
REMARK   34  A    between atoms: _95  and  _97
REMARK   35  A    between atoms: _97  and  _98
REMARK   36  A    between atoms: _97  and  _100
REMARK   37  A    between atoms: _100  and  _101
REMARK   38  A    between atoms: _107  and  _109
REMARK   39  A    between atoms: _120  and  _123
REMARK   40  A    between atoms: _123  and  _124
REMARK   41  A    between atoms: _132  and  _133
REMARK   42  A    between atoms: _141  and  _143
REMARK   43  A    between atoms: _143  and  _144
REMARK   44  A    between atoms: _143  and  _146
REMARK   45  A    between atoms: _146  and  _147
REMARK   46  A    between atoms: _147  and  _148
REMARK   47  A    between atoms: _151  and  _153
REMARK   48  A    between atoms: _153  and  _154
REMARK   49  A    between atoms: _153  and  _156
REMARK   50  A    between atoms: _156  and  _157
REMARK   51  A    between atoms: _162  and  _164
REMARK   52  A    between atoms: _164  and  _165
REMARK   53  A    between atoms: _164  and  _167
REMARK   54  A    between atoms: _167  and  _168
REMARK   55  A    between atoms: _168  and  _169
REMARK   56  A    between atoms: _172  and  _174
REMARK   57  A    between atoms: _174  and  _175
REMARK   58  A    between atoms: _174  and  _177
REMARK   59  A    between atoms: _177  and  _178
REMARK   60  A    between atoms: _181  and  _183
REMARK   61  A    between atoms: _183  and  _184
REMARK   62  A    between atoms: _183  and  _186
REMARK   63  A    between atoms: _186  and  _187
REMARK   64  A    between atoms: _188  and  ZN_417
REMARK   65  A    between atoms: _192  and  _194
REMARK   66  A    between atoms: _194  and  _195
REMARK   67  A    between atoms: _194  and  _197
REMARK   68  A    between atoms: _197  and  _198
REMARK   69  A    between atoms: _201  and  _203
REMARK   70  A    between atoms: _203  and  _204
REMARK   71  A    between atoms: _203  and  _206
REMARK   72  A    between atoms: _209  and  _211
REMARK   73  A    between atoms: _211  and  _212
REMARK   74  A    between atoms: _211  and  _214
REMARK   75  A    between atoms: _214  and  _215
REMARK   76  A    between atoms: _220  and  _222
REMARK   77  A    between atoms: _222  and  _223
REMARK   78  A    between atoms: _222  and  _225
REMARK   79  A    between atoms: _225  and  _226
REMARK   80  A    between atoms: _232  and  _234
REMARK   81  A    between atoms: _234  and  _235
REMARK   82  A    between atoms: _234  and  _237
REMARK   83  A    between atoms: _240  and  _242
REMARK   84  A    between atoms: _242  and  _243
REMARK   85  A    between atoms: _242  and  _245
REMARK   86  A    between atoms: _245  and  _246
REMARK   87  A    between atoms: _249  and  _251
REMARK   88  A    between atoms: _251  and  _252
REMARK   89  A    between atoms: _255  and  _257
REMARK   90  A    between atoms: _257  and  _258
REMARK   91  A    between atoms: _257  and  _260
REMARK   92  A    between atoms: _263  and  _265
REMARK   93  A    between atoms: _265  and  _266
REMARK   94  A    between atoms: _265  and  _268
REMARK   95  A    between atoms: _268  and  _269
REMARK   96  A    between atoms: _272  and  _274
REMARK   97  A    between atoms: _274  and  _275
REMARK   98  A    between atoms: _277  and  _279
REMARK   99  A    between atoms: _279  and  _280
REMARK  100  A    between atoms: _282  and  _284
REMARK  101  A    between atoms: _284  and  _285
REMARK  102  A    between atoms: _284  and  _287
REMARK  103  A    between atoms: _287  and  _288
REMARK  104  A    between atoms: _290  and  _292
REMARK  105  A    between atoms: _292  and  _293
REMARK  106  A    between atoms: _292  and  _295
REMARK  107  A    between atoms: _295  and  _296
REMARK  108  A    between atoms: _299  and  _301
REMARK  109  A    between atoms: _301  and  _302
REMARK  110  A    between atoms: _301  and  _304
REMARK  111  A    between atoms: _304  and  _305
REMARK  112  A    between atoms: _308  and  _310
REMARK  113  A    between atoms: _310  and  _311
REMARK  114  A    between atoms: _310  and  _313
REMARK  115  A    between atoms: _313  and  _314
REMARK  116  A    between atoms: _318  and  _319
REMARK  117  A    between atoms: _325  and  _326
REMARK  118  A    between atoms: _331  and  _333
REMARK  119  A    between atoms: _333  and  _334
REMARK  120  A    between atoms: _333  and  _336
REMARK  121  A    between atoms: _336  and  _337
REMARK  122  A    between atoms: _340  and  _342
REMARK  123  A    between atoms: _342  and  _343
REMARK  124  A    between atoms: _342  and  _345
REMARK  125  A    between atoms: _345  and  _346
REMARK  126  A    between atoms: _349  and  _351
REMARK  127  A    between atoms: _351  and  _352
REMARK  128  A    between atoms: _351  and  _354
REMARK  129  A    between atoms: _356  and  _358
REMARK  130  A    between atoms: _358  and  _359
REMARK  131  A    between atoms: _358  and  _361
REMARK  132  A    between atoms: _364  and  _366
REMARK  133  A    between atoms: _366  and  _367
REMARK  134  A    between atoms: _366  and  _369
REMARK  135  A    between atoms: _369  and  _370
REMARK  136  A    between atoms: _373  and  _375
REMARK  137  A    between atoms: _375  and  _376
REMARK  138  A    between atoms: _375  and  _378
REMARK  139  A    between atoms: _378  and  _379
REMARK  140  A    between atoms: _389  and  _391
REMARK  141  A    between atoms: _391  and  _392
REMARK  142  A    between atoms: _391  and  _394
REMARK  143  A    between atoms: _394  and  _395
REMARK  144  A    between atoms: _400  and  _402
REMARK  145  A    between atoms: _402  and  _403
REMARK  146  A    between atoms: _402  and  _405
REMARK  147  A    between atoms: _405  and  _406
REMARK  148  A    between atoms: _406  and  _407
REMARK  149  A    between atoms: _407  and  _408
REMARK                            x       y       z     vdW  Elec       q    Type
REMARK                         _______ _______ _______ _____ _____    ______ ____
ROOT
ATOM      1  CA  ALA A   1      16.633  -1.486   7.311  0.00  0.00    +0.133 C 
ATOM      2  CB  ALA A   1      16.108  -1.171   8.728  0.00  0.00    +0.027 C 
ENDROOT
BRANCH   1   3
ATOM      3  N   ALA A   1      18.017  -1.060   7.194  0.00  0.00    -0.239 NA
ATOM      4  H   ALA A   1      18.240  -0.232   6.606  0.00  0.00    +0.142 HD
ENDBRANCH   1   3
BRANCH   1   5
ATOM      5  C   ALA A   1      15.864  -0.704   6.245  0.00  0.00    +0.224 C 
ATOM      6  O   ALA A   1      16.521  -0.023   5.465  0.00  0.00    -0.287 OA
ENDBRANCH   1   5
TORSDOF 2
REMARK  Name = ../refined-set-2016/2weh/2weh_pocket.pdb
REMARK  149 active torsions:
REMARK  status: ('A' for Active; 'I' for Inactive)
REMARK    1  A    between atoms: _1  and  _3
REMARK    2  A    between atoms: _3  and  _4
REMARK    3  A    between atoms: _3  and  _6
REMARK    4  A    between atoms: _6  and  _7
REMARK    5  A    between atoms: _17  and  _19
REMARK    6  A    between atoms: _19  and  _20
REMARK    7  A    between atoms: _19  and  _22
REMARK    8  A    between atoms: _22  and  _23
REMARK    9  A    between atoms: _28  and  _29
REMARK   10  A    between atoms: _31  and  _33
REMARK   11  A    between atoms: _33  and  _34
REMARK   12  A    between atoms: _33  and  _36
REMARK   13  A    between atoms: _36  and  _37
REMARK   14  A    between atoms: _40  and  _41
REMARK   15  A    between atoms: _46  and  _48
REMARK   16  A    between atoms: _48  and  _49
REMARK   17  A    between atoms: _48  and  _51
REMARK   18  A    between atoms: _51  and  _52
REMARK   19  A    between atoms: _57  and  _59
REMARK   20  A    between atoms: _59  and  _60
REMARK   21  A    between atoms: _63  and  _65
REMARK   22  A    between atoms: _65  and  _66
REMARK   23  A    between atoms: _65  and  _68
REMARK   24  A    between atoms: _68  and  _69
REMARK   25  A    between atoms: _74  and  _76
REMARK   26  A    between atoms: _76  and  _77
REMARK   27  A    between atoms: _76  and  _79
REMARK   28  A    between atoms: _79  and  _80
REMARK   29  A    between atoms: _83  and  _85
REMARK   30  A    between atoms: _85  and  _86
REMARK   31  A    between atoms: _85  and  _88
REMARK   32  A    between atoms: _88  and  _89
REMARK   33  A    between atoms: _89  and  _90
REMARK   34  A    between atoms: _95  and  _97
REMARK   35  A    between atoms: _97  and  _98
REMARK   36  A    between atoms: _97  and  _100
REMARK   37  A    between atoms: _100  and  _101
REMARK   38  A    between atoms: _107  and  _109
REMARK   39  A    between atoms: _120  and  _123
REMARK   40  A    between atoms: _123  and  _124
REMARK   41  A    between atoms: _132  and  _133
REMARK   42  A    between atoms: _141  and  _143
REMARK   43  A    between atoms: _143  and  _144
REMARK   44  A    between atoms: _143  and  _146
REMARK   45  A    between atoms: _146  and  _147
REMARK   46  A    between atoms: _147  and  _148
REMARK   47  A    between atoms: _151  and  _153
REMARK   48  A    between atoms: _153  and  _154
REMARK   49  A    between atoms: _153  and  _156
REMARK   50  A    between atoms: _156  and  _157
REMARK   51  A    between atoms: _162  and  _164
REMARK   52  A    between atoms: _164  and  _165
REMARK   53  A    between atoms: _164  and  _167
REMARK   54  A    between atoms: _167  and  _168
REMARK   55  A    between atoms: _168  and  _169
REMARK   56  A    between atoms: _172  and  _174
REMARK   57  A    between atoms: _174  and  _175
REMARK   58  A    between atoms: _174  and  _177
REMARK   59  A    between atoms: _177  and  _178
REMARK   60  A    between atoms: _181  and  _183
REMARK   61  A    between atoms: _183  and  _184
REMARK   62  A    between atoms: _183  and  _186
REMARK   63  A    between atoms: _186  and  _187
REMARK   64  A    between atoms: _188  and  ZN_417
REMARK   65  A    between atoms: _192  and  _194
REMARK   66  A    between atoms: _194  and  _195
REMARK   67  A    between atoms: _194  and  _197
REMARK   68  A    between atoms: _197  and  _198
REMARK   69  A    between atoms: _201  and  _203
REMARK   70  A    between atoms: _203  and  _204
REMARK   71  A    between atoms: _203  and  _206
REMARK   72  A    between atoms: _209  and  _211
REMARK   73  A    between atoms: _211  and  _212
REMARK   74  A    between atoms: _211  and  _214
REMARK   75  A    between atoms: _214  and  _215
REMARK   76  A    between atoms: _220  and  _222
REMARK   77  A    between atoms: _222  and  _223
REMARK   78  A    between atoms: _222  and  _225
REMARK   79  A    between atoms: _225  and  _226
REMARK   80  A    between atoms: _232  and  _234
REMARK   81  A    between atoms: _234  and  _235
REMARK   82  A    between atoms: _234  and  _237
REMARK   83  A    between atoms: _240  and  _242
REMARK   84  A    between atoms: _242  and  _243
REMARK   85  A    between atoms: _242  and  _245
REMARK   86  A    between atoms: _245  and  _246
REMARK   87  A    between atoms: _249  and  _251
REMARK   88  A    between atoms: _251  and  _252
REMARK   89  A    between atoms: _255  and  _257
REMARK   90  A    between atoms: _257  and  _258
REMARK   91  A    between atoms: _257  and  _260
REMARK   92  A    between atoms: _263  and  _265
REMARK   93  A    between atoms: _265  and  _266
REMARK   94  A    between atoms: _265  and  _268
REMARK   95  A    between atoms: _268  and  _269
REMARK   96  A    between atoms: _272  and  _274
REMARK   97  A    between atoms: _274  and  _275
REMARK   98  A    between atoms: _277  and  _279
REMARK   99  A    between atoms: _279  and  _280
REMARK  100  A    between atoms: _282  and  _284
REMARK  101  A    between atoms: _284  and  _285
REMARK  102  A    between atoms: _284  and  _287
REMARK  103  A    between atoms: _287  and  _288
REMARK  104  A    between atoms: _290  and  _292
REMARK  105  A    between atoms: _292  and  _293
REMARK  106  A    between atoms: _292  and  _295
REMARK  107  A    between atoms: _295  and  _296
REMARK  108  A    between atoms: _299  and  _301
REMARK  109  A    between atoms: _301  and  _302
REMARK  110  A    between atoms: _301  and  _304
REMARK  111  A    between atoms: _304  and  _305
REMARK  112  A    between atoms: _308  and  _310
REMARK  113  A    between atoms: _310  and  _311
REMARK  114  A    between atoms: _310  and  _313
REMARK  115  A    between atoms: _313  and  _314
REMARK  116  A    between atoms: _318  and  _319
REMARK  117  A    between atoms: _325  and  _326
REMARK  118  A    between atoms: _331  and  _333
REMARK  119  A    between atoms: _333  and  _334
REMARK  120  A    between atoms: _333  and  _336
REMARK  121  A    between atoms: _336  and  _337
REMARK  122  A    between atoms: _340  and  _342
REMARK  123  A    between atoms: _342  and  _343
REMARK  124  A    between atoms: _342  and  _345
REMARK  125  A    between atoms: _345  and  _346
REMARK  126  A    between atoms: _349  and  _351
REMARK  127  A    between atoms: _351  and  _352
REMARK  128  A    between atoms: _351  and  _354
REMARK  129  A    between atoms: _356  and  _358
REMARK  130  A    between atoms: _358  and  _359
REMARK  131  A    between atoms: _358  and  _361
REMARK  132  A    between atoms: _364  and  _366
REMARK  133  A    between atoms: _366  and  _367
REMARK  134  A    between atoms: _366  and  _369
REMARK  135  A    between atoms: _369  and  _370
REMARK  136  A    between atoms: _373  and  _375
REMARK  137  A    between atoms: _375  and  _376
REMARK  138  A    between atoms: _375  and  _378
REMARK  139  A    between atoms: _378  and  _379
REMARK  140  A    between atoms: _389  and  _391
REMARK  141  A    between atoms: _391  and  _392
REMARK  142  A    between atoms: _391  and  _394
REMARK  143  A    between atoms: _394  and  _395
REMARK  144  A    between atoms: _400  and  _402
REMARK  145  A    between atoms: _402  and  _403
REMARK  146  A    between atoms: _402  and  _405
REMARK  147  A    between atoms: _405  and  _406
REMARK  148  A    between atoms: _406  and  _407
REMARK  149  A    between atoms: _407  and  _408
REMARK                            x       y       z     vdW  Elec       q    Type
REMARK                         _______ _______ _______ _____ _____    ______ ____
ROOT
ATOM      1  CB  ASN A   1      12.671   4.446   6.926  0.00  0.00    +0.110 C 
ENDROOT
BRANCH   1   2
ATOM      2  CG  ASN A   1      13.758   4.267   7.998  0.00  0.00    +0.221 C 
ATOM      3  ND2 ASN A   1      13.876   3.088   8.476  0.00  0.00    -0.329 N 
ATOM      4 HD21 ASN A   1      14.606   2.886   9.188  0.00  0.00    +0.145 HD
ATOM      5 HD22 ASN A   1      13.242   2.330   8.153  0.00  0.00    +0.145 HD
ATOM      6  OD1 ASN A   1      14.491   5.202   8.353  0.00  0.00    -0.275 OA
ENDBRANCH   1   2
BRANCH   1   7
ATOM      7  CA  ASN A   1      11.917   3.165   6.655  0.00  0.00    +0.142 C 
BRANCH   7   8
ATOM      8  N   ASN A   1      12.738   2.239   5.882  0.00  0.00    -0.239 NA
ATOM      9  H   ASN A   1      13.222   2.571   5.024  0.00  0.00    +0.142 HD
ENDBRANCH   7   8
BRANCH   7  10
ATOM     10  C   ASN A   1      10.737   3.500   5.837  0.00  0.00    +0.225 C 
ATOM     11  O   ASN A   1      10.889   3.792   4.663  0.00  0.00    -0.287 OA
ENDBRANCH   7  10
ENDBRANCH   1   7
TORSDOF 4
REMARK  Name = ../refined-set-2016/2weh/2weh_pocket.pdb
REMARK  149 active torsions:
REMARK  status: ('A' for Active; 'I' for Inactive)
REMARK    1  A    between atoms: _1  and  _3
REMARK    2  A    between atoms: _3  and  _4
REMARK    3  A    between atoms: _3  and  _6
REMARK    4  A    between atoms: _6  and  _7
REMARK    5  A    between atoms: _17  and  _19
REMARK    6  A    between atoms: _19  and  _20
REMARK    7  A    between atoms: _19  and  _22
REMARK    8  A    between atoms: _22  and  _23
REMARK    9  A    between atoms: _28  and  _29
REMARK   10  A    between atoms: _31  and  _33
REMARK   11  A    between atoms: _33  and  _34
REMARK   12  A    between atoms: _33  and  _36
REMARK   13  A    between atoms: _36  and  _37
REMARK   14  A    between atoms: _40  and  _41
REMARK   15  A    between atoms: _46  and  _48
REMARK   16  A    between atoms: _48  and  _49
REMARK   17  A    between atoms: _48  and  _51
REMARK   18  A    between atoms: _51  and  _52
REMARK   19  A    between atoms: _57  and  _59
REMARK   20  A    between atoms: _59  and  _60
REMARK   21  A    between atoms: _63  and  _65
REMARK   22  A    between atoms: _65  and  _66
REMARK   23  A    between atoms: _65  and  _68
REMARK   24  A    between atoms: _68  and  _69
REMARK   25  A    between atoms: _74  and  _76
REMARK   26  A    between atoms: _76  and  _77
REMARK   27  A    between atoms: _76  and  _79
REMARK   28  A    between atoms: _79  and  _80
REMARK   29  A    between atoms: _83  and  _85
REMARK   30  A    between atoms: _85  and  _86
REMARK   31  A    between atoms: _85  and  _88
REMARK   32  A    between atoms: _88  and  _89
REMARK   33  A    between atoms: _89  and  _90
REMARK   34  A    between atoms: _95  and  _97
REMARK   35  A    between atoms: _97  and  _98
REMARK   36  A    between atoms: _97  and  _100
REMARK   37  A    between atoms: _100  and  _101
REMARK   38  A    between atoms: _107  and  _109
REMARK   39  A    between atoms: _120  and  _123
REMARK   40  A    between atoms: _123  and  _124
REMARK   41  A    between atoms: _132  and  _133
REMARK   42  A    between atoms: _141  and  _143
REMARK   43  A    between atoms: _143  and  _144
REMARK   44  A    between atoms: _143  and  _146
REMARK   45  A    between atoms: _146  and  _147
REMARK   46  A    between atoms: _147  and  _148
REMARK   47  A    between atoms: _151  and  _153
REMARK   48  A    between atoms: _153  and  _154
REMARK   49  A    between atoms: _153  and  _156
REMARK   50  A    between atoms: _156  and  _157
REMARK   51  A    between atoms: _162  and  _164
REMARK   52  A    between atoms: _164  and  _165
REMARK   53  A    between atoms: _164  and  _167
REMARK   54  A    between atoms: _167  and  _168
REMARK   55  A    between atoms: _168  and  _169
REMARK   56  A    between atoms: _172  and  _174
REMARK   57  A    between atoms: _174  and  _175
REMARK   58  A    between atoms: _174  and  _177
REMARK   59  A    between atoms: _177  and  _178
REMARK   60  A    between atoms: _181  and  _183
REMARK   61  A    between atoms: _183  and  _184
REMARK   62  A    between atoms: _183  and  _186
REMARK   63  A    between atoms: _186  and  _187
REMARK   64  A    between atoms: _188  and  ZN_417
REMARK   65  A    between atoms: _192  and  _194
REMARK   66  A    between atoms: _194  and  _195
REMARK   67  A    between atoms: _194  and  _197
REMARK   68  A    between atoms: _197  and  _198
REMARK   69  A    between atoms: _201  and  _203
REMARK   70  A    between atoms: _203  and  _204
REMARK   71  A    between atoms: _203  and  _206
REMARK   72  A    between atoms: _209  and  _211
REMARK   73  A    between atoms: _211  and  _212
REMARK   74  A    between atoms: _211  and  _214
REMARK   75  A    between atoms: _214  and  _215
REMARK   76  A    between atoms: _220  and  _222
REMARK   77  A    between atoms: _222  and  _223
REMARK   78  A    between atoms: _222  and  _225
REMARK   79  A    between atoms: _225  and  _226
REMARK   80  A    between atoms: _232  and  _234
REMARK   81  A    between atoms: _234  and  _235
REMARK   82  A    between atoms: _234  and  _237
REMARK   83  A    between atoms: _240  and  _242
REMARK   84  A    between atoms: _242  and  _243
REMARK   85  A    between atoms: _242  and  _245
REMARK   86  A    between atoms: _245  and  _246
REMARK   87  A    between atoms: _249  and  _251
REMARK   88  A    between atoms: _251  and  _252
REMARK   89  A    between atoms: _255  and  _257
REMARK   90  A    between atoms: _257  and  _258
REMARK   91  A    between atoms: _257  and  _260
REMARK   92  A    between atoms: _263  and  _265
REMARK   93  A    between atoms: _265  and  _266
REMARK   94  A    between atoms: _265  and  _268
REMARK   95  A    between atoms: _268  and  _269
REMARK   96  A    between atoms: _272  and  _274
REMARK   97  A    between atoms: _274  and  _275
REMARK   98  A    between atoms: _277  and  _279
REMARK   99  A    between atoms: _279  and  _280
REMARK  100  A    between atoms: _282  and  _284
REMARK  101  A    between atoms: _284  and  _285
REMARK  102  A    between atoms: _284  and  _287
REMARK  103  A    between atoms: _287  and  _288
REMARK  104  A    between atoms: _290  and  _292
REMARK  105  A    between atoms: _292  and  _293
REMARK  106  A    between atoms: _292  and  _295
REMARK  107  A    between atoms: _295  and  _296
REMARK  108  A    between atoms: _299  and  _301
REMARK  109  A    between atoms: _301  and  _302
REMARK  110  A    between atoms: _301  and  _304
REMARK  111  A    between atoms: _304  and  _305
REMARK  112  A    between atoms: _308  and  _310
REMARK  113  A    between atoms: _310  and  _311
REMARK  114  A    between atoms: _310  and  _313
REMARK  115  A    between atoms: _313  and  _314
REMARK  116  A    between atoms: _318  and  _319
REMARK  117  A    between atoms: _325  and  _326
REMARK  118  A    between atoms: _331  and  _333
REMARK  119  A    between atoms: _333  and  _334
REMARK  120  A    between atoms: _333  and  _336
REMARK  121  A    between atoms: _336  and  _337
REMARK  122  A    between atoms: _340  and  _342
REMARK  123  A    between atoms: _342  and  _343
REMARK  124  A    between atoms: _342  and  _345
REMARK  125  A    between atoms: _345  and  _346
REMARK  126  A    between atoms: _349  and  _351
REMARK  127  A    between atoms: _351  and  _352
REMARK  128  A    between atoms: _351  and  _354
REMARK  129  A    between atoms: _356  and  _358
REMARK  130  A    between atoms: _358  and  _359
REMARK  131  A    between atoms: _358  and  _361
REMARK  132  A    between atoms: _364  and  _366
REMARK  133  A    between atoms: _366  and  _367
REMARK  134  A    between atoms: _366  and  _369
REMARK  135  A    between atoms: _369  and  _370
REMARK  136  A    between atoms: _373  and  _375
REMARK  137  A    between atoms: _375  and  _376
REMARK  138  A    between atoms: _375  and  _378
REMARK  139  A    between atoms: _378  and  _379
REMARK  140  A    between atoms: _389  and  _391
REMARK  141  A    between atoms: _391  and  _392
REMARK  142  A    between atoms: _391  and  _394
REMARK  143  A    between atoms: _394  and  _395
REMARK  144  A    between atoms: _400  and  _402
REMARK  145  A    between atoms: _402  and  _403
REMARK  146  A    between atoms: _402  and  _405
REMARK  147  A    between atoms: _405  and  _406
REMARK  148  A    between atoms: _406  and  _407
REMARK  149  A    between atoms: _407  and  _408
REMARK                            x       y       z     vdW  Elec       q    Type
REMARK                         _______ _______ _______ _____ _____    ______ ____
ROOT
ATOM      1  C   UNK A   4      10.939   0.280  10.316  0.00  0.00    +0.000 C 
ATOM      2  C   UNK A   4      10.852  -0.982  11.145  0.00  0.00    +0.000 C 
ATOM      3  O   UNK A   4      10.121  -1.049  12.176  0.00  0.00    +0.000 OA
ATOM      4  N   VAL A   5      11.549  -2.009  10.658  0.00  0.00    +0.000 N 
ATOM      5  CA  VAL A   5      11.614  -3.306  11.352  0.00  0.00    +0.000 C 
ATOM      6  C   VAL A   5      13.030  -3.747  11.562  0.00  0.00    +0.000 C 
ATOM      7  N   UNK A   6      13.173  -4.737  12.418  0.00  0.00    +0.000 N 
ATOM      8  H   UNK A   6      12.342  -5.018  12.977  0.00  0.00    +0.000 HD
ATOM      9  C   UNK A   6      14.429  -5.473  12.637  0.00  0.00    +0.000 C 
ATOM     10  C   UNK A   6      14.998  -5.193  14.046  0.00  0.00    +0.000 C 
ATOM     11  C   UNK A   6      15.297  -3.742  14.278  0.00  0.00    +0.000 A 
ATOM     12  C   UNK A   6      14.484  -2.723  14.653  0.00  0.00    +0.000 A 
ATOM     13  N   UNK A   6      15.247  -1.575  14.650  0.00  0.00    +0.000 N 
ATOM     14 ZN   UNK A   6      14.419   0.130  15.315  0.00  0.00    +0.000 Zn
ATOM     15  N   UNK A   4      13.676   1.195  13.717  0.00  0.00    +0.000 N 
ATOM     16  C   UNK A   4      13.173   2.385  13.428  0.00  0.00    +0.000 A 
ATOM     17  N   UNK A   4      12.683   2.337  12.196  0.00  0.00    +0.000 NA
ATOM     18  C   UNK A   4      12.886   1.083  11.676  0.00  0.00    +0.000 A 
ATOM     19  C   UNK A   4      13.493   0.365  12.645  0.00  0.00    +0.000 A 
ATOM     20  C   UNK A   6      16.491  -1.889  14.318  0.00  0.00    +0.000 A 
ATOM     21  N   UNK A   6      16.547  -3.184  14.034  0.00  0.00    +0.000 NA
ATOM     22  O   VAL A   5      13.937  -3.263  10.892  0.00  0.00    +0.000 OA
ATOM     23  H   VAL A   5      12.062  -1.890   9.761  0.00  0.00    +0.000 HD
ATOM     24  C   UNK A   4      12.402   0.689  10.311  0.00  0.00    +0.000 C 
ENDROOT
BRANCH  14  25
ATOM     25  N   UNK A   6      13.068  -0.685  16.582  0.00  0.00    +0.000 N 
ATOM     26  C   UNK A   6      13.365  -1.601  17.469  0.00  0.00    +0.000 A 
ATOM     27  N   UNK A   6      12.247  -1.968  18.089  0.00  0.00    +0.000 NA
ATOM     28  C   UNK A   6      11.187  -1.293  17.542  0.00  0.00    +0.000 A 
ATOM     29  C   UNK A   6      11.700  -0.455  16.599  0.00  0.00    +0.000 A 
BRANCH  29  30
ATOM     30  C   UNK A   6      11.002   0.554  15.738  0.00  0.00    +0.000 C 
BRANCH  30  31
ATOM     31  C   UNK A   6       9.463   0.316  15.677  0.00  0.00    +0.000 C 
BRANCH  31  32
ATOM     32  C   UNK A   6       8.766   1.488  14.988  0.00  0.00    +0.000 C 
ATOM     33  N   UNK A   4       7.822   2.072  15.691  0.00  0.00    +0.000 N 
ATOM     34  H   UNK A   4       7.571   1.693  16.626  0.00  0.00    +0.000 HD
ATOM     35  O   UNK A   6       9.030   1.792  13.769  0.00  0.00    +0.000 OA
BRANCH  33  36
ATOM     36  C   UNK A   4       7.100   3.278  15.165  0.00  0.00    +0.000 C 
BRANCH  36  37
ATOM     37  C   UNK A   4       7.675   4.443  15.930  0.00  0.00    +0.000 C 
ATOM     38  O   UNK A   4       7.497   4.540  17.171  0.00  0.00    +0.000 OA
ATOM     39  N   VAL A   5       8.372   5.311  15.186  0.00  0.00    +0.000 N 
ATOM     40  H   VAL A   5       8.249   5.324  14.153  0.00  0.00    +0.000 HD
BRANCH  39  41
ATOM     41  CA  VAL A   5       9.287   6.223  15.807  0.00  0.00    +0.000 C 
BRANCH  41  42
ATOM     42  C   VAL A   5       8.539   7.533  15.835  0.00  0.00    +0.000 C 
ATOM     43  N   UNK A   6       8.476   8.120  17.052  0.00  0.00    +0.000 N 
ATOM     44  H   UNK A   6       8.911   7.641  17.866  0.00  0.00    +0.000 HD
ATOM     45  O   VAL A   5       8.120   8.053  14.729  0.00  0.00    +0.000 OA
BRANCH  43  46
ATOM     46  C   UNK A   6       7.804   9.429  17.262  0.00  0.00    +0.000 C 
BRANCH  46  47
ATOM     47  C   UNK A   6       8.672  10.449  17.981  0.00  0.00    +0.000 C 
ATOM     48  O   UNK A   6       9.365  10.072  18.887  0.00  0.00    +0.000 OA
ENDBRANCH  46  47
BRANCH  46  49
ATOM     49  C   UNK A   6       6.534   9.272  18.109  0.00  0.00    +0.000 C 
BRANCH  49  50
ATOM     50  C   UNK A   6       5.620   8.161  17.656  0.00  0.00    +0.000 A 
ATOM     51  N   UNK A   6       5.919   6.837  17.880  0.00  0.00    +0.000 NA
ATOM     52  C   UNK A   6       4.907   6.083  17.446  0.00  0.00    +0.000 A 
ATOM     53  N   UNK A   6       3.960   6.876  16.968  0.00  0.00    +0.000 NA
ATOM     54  C   UNK A   6       4.373   8.185  17.112  0.00  0.00    +0.000 A 
ENDBRANCH  49  50
ENDBRANCH  46  49
ENDBRANCH  43  46
ENDBRANCH  41  42
BRANCH  41  55
ATOM     55  CB  VAL A   5      10.602   6.378  15.015  0.00  0.00    +0.000 C 
ATOM     56  CG2 VAL A   5      11.585   7.433  15.703  0.00  0.00    +0.000 C 
ATOM     57  CG1 VAL A   5      11.297   5.025  14.860  0.00  0.00    +0.000 C 
ENDBRANCH  41  55
ENDBRANCH  39  41
ENDBRANCH  36  37
BRANCH  36  58
ATOM     58  C   UNK A   4       5.594   3.200  15.310  0.00  0.00    +0.000 C 
BRANCH  58  59
ATOM     59  C   UNK A   4       4.921   2.111  14.433  0.00  0.00    +0.000 C 
ATOM     60  C   UNK A   4       4.219   1.138  15.353  0.00  0.00    +0.000 C 
ATOM     61  C   UNK A   4       3.895   2.805  13.510  0.00  0.00    +0.000 C 
ENDBRANCH  58  59
ENDBRANCH  36  58
ENDBRANCH  33  36
ENDBRANCH  31  32
BRANCH  31  62
ATOM     62  N   UNK A   6       9.254  -0.914  14.906  0.00  0.00    +0.000 N 
ATOM     63  C   LEU A   2       8.640  -1.980  15.369  0.00  0.00    +0.000 C 
ATOM     64  O   LEU A   2       8.197  -2.035  16.517  0.00  0.00    +0.000 OA
ATOM     65  H   UNK A   6       9.615  -0.945  13.931  0.00  0.00    +0.000 HD
BRANCH  63  66
ATOM     66  CA  LEU A   2       8.430  -3.131  14.351  0.00  0.00    +0.000 C 
BRANCH  66  67
ATOM     67  N   LEU A   2       8.727  -4.442  14.915  0.00  0.00    +0.000 N 
ATOM     68  H   LEU A   2       7.949  -4.971  15.359  0.00  0.00    +0.000 HD
ATOM     69  C   GLU A   1       9.929  -4.999  14.896  0.00  0.00    +0.000 C 
ATOM     70  O   GLU A   1      10.882  -4.553  14.256  0.00  0.00    +0.000 OA
BRANCH  69  71
ATOM     71  CA  GLU A   1      10.078  -6.283  15.741  0.00  0.00    +0.000 C 
BRANCH  71  72
ATOM     72  N   GLU A   1      10.627  -7.285  14.819  0.00  0.00    +0.000 NA
ATOM     73  H   GLU A   1      11.293  -6.984  14.079  0.00  0.00    +0.000 HD
ENDBRANCH  71  72
BRANCH  71  74
ATOM     74  CB  GLU A   1      11.018  -6.023  16.927  0.00  0.00    +0.000 C 
BRANCH  74  75
ATOM     75  CG  GLU A   1      10.511  -4.964  18.063  0.00  0.00    +0.000 C 
BRANCH  75  76
ATOM     76  CD  GLU A   1      11.478  -4.888  19.175  0.00  0.00    +0.000 C 
ATOM     77  OE2 GLU A   1      11.621  -3.840  19.862  0.00  0.00    +0.000 OA
ATOM     78  OE1 GLU A   1      12.148  -5.885  19.368  0.00  0.00    +0.000 OA
ENDBRANCH  75  76
ENDBRANCH  74  75
ENDBRANCH  71  74
ENDBRANCH  69  71
ENDBRANCH  66  67
BRANCH  66  79
ATOM     79  CB  LEU A   2       6.952  -3.126  13.902  0.00  0.00    +0.000 C 
BRANCH  79  80
ATOM     80  CG  LEU A   2       6.115  -1.843  13.578  0.00  0.00    +0.000 C 
ATOM     81  CD2 LEU A   2       4.652  -2.399  13.426  0.00  0.00    +0.000 C 
ATOM     82  CD1 LEU A   2       6.634  -1.305  12.252  0.00  0.00    +0.000 C 
ENDBRANCH  79  80
ENDBRANCH  66  79
ENDBRANCH  63  66
ENDBRANCH  31  62
ENDBRANCH  30  31
ENDBRANCH  29  30
ENDBRANCH  14  25
BRANCH   1  84
ATOM     83  C   UNK A   3       9.518   2.266  10.278  0.00  0.00    +0.000 C 
ATOM     84  N   UNK A   4      10.144   1.301  10.950  0.00  0.00    +0.000 N 
ATOM     85  H   UNK A   4      10.054   1.284  11.986  0.00  0.00    +0.000 HD
ATOM     86  O   UNK A   3       9.635   2.406   9.080  0.00  0.00    +0.000 OA
BRANCH  83  87
ATOM     87  C   UNK A   3       8.574   3.170  11.061  0.00  0.00    +0.000 C 
BRANCH  87  90
ATOM     88  C   LEU A   2       8.598   5.562  11.171  0.00  0.00    +0.000 C 
ATOM     89  O   LEU A   2       8.497   5.560  12.347  0.00  0.00    +0.000 OA
ATOM     90  N   UNK A   3       8.411   4.456  10.441  0.00  0.00    +0.000 N 
ATOM     91  H   UNK A   3       8.151   4.526   9.437  0.00  0.00    +0.000 HD
BRANCH  88  92
ATOM     92  CA  LEU A   2       8.910   6.862  10.473  0.00  0.00    +0.000 C 
BRANCH  92  94
ATOM     93  C   GLU A   1       8.402   9.162  10.755  0.00  0.00    +0.000 C 
ATOM     94  N   LEU A   2       8.505   7.959  11.298  0.00  0.00    +0.000 N 
ATOM     95  H   LEU A   2       8.295   7.814  12.306  0.00  0.00    +0.000 HD
ATOM     96  O   GLU A   1       8.536   9.319   9.583  0.00  0.00    +0.000 OA
BRANCH  93  97
ATOM     97  CA  GLU A   1       8.075  10.343  11.665  0.00  0.00    +0.000 C 
BRANCH  97  98
ATOM     98  CB  GLU A   1       9.410  11.001  12.181  0.00  0.00    +0.000 C 
ATOM     99  CG2 GLU A   1      10.142  10.165  13.260  0.00  0.00    +0.000 C 
BRANCH  98 100
ATOM    100  CG1 GLU A   1      10.388  11.279  11.010  0.00  0.00    +0.000 C 
ATOM    101  CD1 GLU A   1      11.596  12.196  11.433  0.00  0.00    +0.000 C 
ENDBRANCH  98 100
ENDBRANCH  97  98
BRANCH  97 102
ATOM    102  N   GLU A   1       7.198   9.910  12.780  0.00  0.00    +0.000 NA
ATOM    103  H   GLU A   1       7.549   9.253  13.506  0.00  0.00    +0.000 HD
ENDBRANCH  97 102
ENDBRANCH  93  97
ENDBRANCH  92  94
BRANCH  92 104
ATOM    104  CB  LEU A   2      10.417   7.117  10.185  0.00  0.00    +0.000 C 
BRANCH 104 105
ATOM    105  CG  LEU A   2      11.282   6.068   9.830  0.00  0.00    +0.000 C 
BRANCH 105 106
ATOM    106  CD  LEU A   2      12.014   5.422  10.985  0.00  0.00    +0.000 C 
ATOM    107  OE1 LEU A   2      11.533   4.453  11.444  0.00  0.00    +0.000 OA
ATOM    108  NE2 LEU A   2      13.254   5.823  11.288  0.00  0.00    +0.000 N 
ATOM    109 HE21 LEU A   2      13.831   5.270  11.953  0.00  0.00    +0.000 HD
ATOM    110 HE22 LEU A   2      13.641   6.688  10.858  0.00  0.00    +0.000 HD
ENDBRANCH 105 106
ENDBRANCH 104 105
ENDBRANCH  92 104
ENDBRANCH  88  92
ENDBRANCH  87  90
BRANCH  87 111
ATOM    111  C   UNK A   3       7.175   2.535  11.377  0.00  0.00    +0.000 C 
BRANCH 111 112
ATOM    112  C   UNK A   3       6.436   2.018  10.169  0.00  0.00    +0.000 A 
ATOM    113  C   UNK A   3       5.275   2.665   9.703  0.00  0.00    +0.000 A 
ATOM    114  C   UNK A   3       4.591   2.139   8.583  0.00  0.00    +0.000 A 
ATOM    115  C   UNK A   3       5.028   0.946   7.975  0.00  0.00    +0.000 A 
ATOM    116  C   UNK A   3       6.161   0.307   8.405  0.00  0.00    +0.000 A 
ATOM    117  C   UNK A   3       6.827   0.808   9.564  0.00  0.00    +0.000 A 
ENDBRANCH 111 112
ENDBRANCH  87 111
ENDBRANCH  83  87
ENDBRANCH   1  84
BRANCH   9 118
ATOM    118  C   UNK A   6      13.967  -6.906  12.559  0.00  0.00    +0.000 C 
ATOM    119  O   UNK A   6      12.916  -7.238  13.166  0.00  0.00    +0.000 OA
ENDBRANCH   9 118
BRANCH   5 120
ATOM    120  CB  VAL A   5      10.946  -4.398  10.438  0.00  0.00    +0.000 C 
BRANCH 120 121
ATOM    121  CG  VAL A   5       9.464  -4.100  10.097  0.00  0.00    +0.000 A 
ATOM    122  CD2 VAL A   5       8.437  -4.705  10.821  0.00  0.00    +0.000 A 
ATOM    123  CE2 VAL A   5       7.100  -4.485  10.451  0.00  0.00    +0.000 A 
ATOM    124  CZ  VAL A   5       6.809  -3.599   9.430  0.00  0.00    +0.000 A 
ATOM    125  CE1 VAL A   5       7.837  -2.972   8.733  0.00  0.00    +0.000 A 
ATOM    126  CD1 VAL A   5       9.134  -3.249   9.031  0.00  0.00    +0.000 A 
ENDBRANCH 120 121
ENDBRANCH   5 120
TORSDOF 42
REMARK  Name = ../refined-set-2016/2weh/2weh_pocket.pdb
REMARK  149 active torsions:
REMARK  status: ('A' for Active; 'I' for Inactive)
REMARK    1  A    between atoms: _1  and  _3
REMARK    2  A    between atoms: _3  and  _4
REMARK    3  A    between atoms: _3  and  _6
REMARK    4  A    between atoms: _6  and  _7
REMARK    5  A    between atoms: _17  and  _19
REMARK    6  A    between atoms: _19  and  _20
REMARK    7  A    between atoms: _19  and  _22
REMARK    8  A    between atoms: _22  and  _23
REMARK    9  A    between atoms: _28  and  _29
REMARK   10  A    between atoms: _31  and  _33
REMARK   11  A    between atoms: _33  and  _34
REMARK   12  A    between atoms: _33  and  _36
REMARK   13  A    between atoms: _36  and  _37
REMARK   14  A    between atoms: _40  and  _41
REMARK   15  A    between atoms: _46  and  _48
REMARK   16  A    between atoms: _48  and  _49
REMARK   17  A    between atoms: _48  and  _51
REMARK   18  A    between atoms: _51  and  _52
REMARK   19  A    between atoms: _57  and  _59
REMARK   20  A    between atoms: _59  and  _60
REMARK   21  A    between atoms: _63  and  _65
REMARK   22  A    between atoms: _65  and  _66
REMARK   23  A    between atoms: _65  and  _68
REMARK   24  A    between atoms: _68  and  _69
REMARK   25  A    between atoms: _74  and  _76
REMARK   26  A    between atoms: _76  and  _77
REMARK   27  A    between atoms: _76  and  _79
REMARK   28  A    between atoms: _79  and  _80
REMARK   29  A    between atoms: _83  and  _85
REMARK   30  A    between atoms: _85  and  _86
REMARK   31  A    between atoms: _85  and  _88
REMARK   32  A    between atoms: _88  and  _89
REMARK   33  A    between atoms: _89  and  _90
REMARK   34  A    between atoms: _95  and  _97
REMARK   35  A    between atoms: _97  and  _98
REMARK   36  A    between atoms: _97  and  _100
REMARK   37  A    between atoms: _100  and  _101
REMARK   38  A    between atoms: _107  and  _109
REMARK   39  A    between atoms: _120  and  _123
REMARK   40  A    between atoms: _123  and  _124
REMARK   41  A    between atoms: _132  and  _133
REMARK   42  A    between atoms: _141  and  _143
REMARK   43  A    between atoms: _143  and  _144
REMARK   44  A    between atoms: _143  and  _146
REMARK   45  A    between atoms: _146  and  _147
REMARK   46  A    between atoms: _147  and  _148
REMARK   47  A    between atoms: _151  and  _153
REMARK   48  A    between atoms: _153  and  _154
REMARK   49  A    between atoms: _153  and  _156
REMARK   50  A    between atoms: _156  and  _157
REMARK   51  A    between atoms: _162  and  _164
REMARK   52  A    between atoms: _164  and  _165
REMARK   53  A    between atoms: _164  and  _167
REMARK   54  A    between atoms: _167  and  _168
REMARK   55  A    between atoms: _168  and  _169
REMARK   56  A    between atoms: _172  and  _174
REMARK   57  A    between atoms: _174  and  _175
REMARK   58  A    between atoms: _174  and  _177
REMARK   59  A    between atoms: _177  and  _178
REMARK   60  A    between atoms: _181  and  _183
REMARK   61  A    between atoms: _183  and  _184
REMARK   62  A    between atoms: _183  and  _186
REMARK   63  A    between atoms: _186  and  _187
REMARK   64  A    between atoms: _188  and  ZN_417
REMARK   65  A    between atoms: _192  and  _194
REMARK   66  A    between atoms: _194  and  _195
REMARK   67  A    between atoms: _194  and  _197
REMARK   68  A    between atoms: _197  and  _198
REMARK   69  A    between atoms: _201  and  _203
REMARK   70  A    between atoms: _203  and  _204
REMARK   71  A    between atoms: _203  and  _206
REMARK   72  A    between atoms: _209  and  _211
REMARK   73  A    between atoms: _211  and  _212
REMARK   74  A    between atoms: _211  and  _214
REMARK   75  A    between atoms: _214  and  _215
REMARK   76  A    between atoms: _220  and  _222
REMARK   77  A    between atoms: _222  and  _223
REMARK   78  A    between atoms: _222  and  _225
REMARK   79  A    between atoms: _225  and  _226
REMARK   80  A    between atoms: _232  and  _234
REMARK   81  A    between atoms: _234  and  _235
REMARK   82  A    between atoms: _234  and  _237
REMARK   83  A    between atoms: _240  and  _242
REMARK   84  A    between atoms: _242  and  _243
REMARK   85  A    between atoms: _242  and  _245
REMARK   86  A    between atoms: _245  and  _246
REMARK   87  A    between atoms: _249  and  _251
REMARK   88  A    between atoms: _251  and  _252
REMARK   89  A    between atoms: _255  and  _257
REMARK   90  A    between atoms: _257  and  _258
REMARK   91  A    between atoms: _257  and  _260
REMARK   92  A    between atoms: _263  and  _265
REMARK   93  A    between atoms: _265  and  _266
REMARK   94  A    between atoms: _265  and  _268
REMARK   95  A    between atoms: _268  and  _269
REMARK   96  A    between atoms: _272  and  _274
REMARK   97  A    between atoms: _274  and  _275
REMARK   98  A    between atoms: _277  and  _279
REMARK   99  A    between atoms: _279  and  _280
REMARK  100  A    between atoms: _282  and  _284
REMARK  101  A    between atoms: _284  and  _285
REMARK  102  A    between atoms: _284  and  _287
REMARK  103  A    between atoms: _287  and  _288
REMARK  104  A    between atoms: _290  and  _292
REMARK  105  A    between atoms: _292  and  _293
REMARK  106  A    between atoms: _292  and  _295
REMARK  107  A    between atoms: _295  and  _296
REMARK  108  A    between atoms: _299  and  _301
REMARK  109  A    between atoms: _301  and  _302
REMARK  110  A    between atoms: _301  and  _304
REMARK  111  A    between atoms: _304  and  _305
REMARK  112  A    between atoms: _308  and  _310
REMARK  113  A    between atoms: _310  and  _311
REMARK  114  A    between atoms: _310  and  _313
REMARK  115  A    between atoms: _313  and  _314
REMARK  116  A    between atoms: _318  and  _319
REMARK  117  A    between atoms: _325  and  _326
REMARK  118  A    between atoms: _331  and  _333
REMARK  119  A    between atoms: _333  and  _334
REMARK  120  A    between atoms: _333  and  _336
REMARK  121  A    between atoms: _336  and  _337
REMARK  122  A    between atoms: _340  and  _342
REMARK  123  A    between atoms: _342  and  _343
REMARK  124  A    between atoms: _342  and  _345
REMARK  125  A    between atoms: _345  and  _346
REMARK  126  A    between atoms: _349  and  _351
REMARK  127  A    between atoms: _351  and  _352
REMARK  128  A    between atoms: _351  and  _354
REMARK  129  A    between atoms: _356  and  _358
REMARK  130  A    between atoms: _358  and  _359
REMARK  131  A    between atoms: _358  and  _361
REMARK  132  A    between atoms: _364  and  _366
REMARK  133  A    between atoms: _366  and  _367
REMARK  134  A    between atoms: _366  and  _369
REMARK  135  A    between atoms: _369  and  _370
REMARK  136  A    between atoms: _373  and  _375
REMARK  137  A    between atoms: _375  and  _376
REMARK  138  A    between atoms: _375  and  _378
REMARK  139  A    between atoms: _378  and  _379
REMARK  140  A    between atoms: _389  and  _391
REMARK  141  A    between atoms: _391  and  _392
REMARK  142  A    between atoms: _391  and  _394
REMARK  143  A    between atoms: _394  and  _395
REMARK  144  A    between atoms: _400  and  _402
REMARK  145  A    between atoms: _402  and  _403
REMARK  146  A    between atoms: _402  and  _405
REMARK  147  A    between atoms: _405  and  _406
REMARK  148  A    between atoms: _406  and  _407
REMARK  149  A    between atoms: _407  and  _408
REMARK                            x       y       z     vdW  Elec       q    Type
REMARK                         _______ _______ _______ _____ _____    ______ ____
ROOT
ATOM      1  C   GLU A   1      15.311  -6.731  21.081  0.00  0.00    +0.238 C 
ATOM      2  O   GLU A   1      16.076  -7.305  21.871  0.00  0.00    -0.274 OA
ATOM      3  N   HIS A   2      14.119  -6.319  21.462  0.00  0.00    -0.298 N 
ATOM      4  H   HIS A   2      13.514  -5.780  20.810  0.00  0.00    +0.150 HD
ENDROOT
BRANCH   1   5
ATOM      5  CA  GLU A   1      15.629  -6.590  19.580  0.00  0.00    +0.145 C 
BRANCH   5   6
ATOM      6  N   GLU A   1      14.594  -7.294  18.825  0.00  0.00    -0.238 NA
ATOM      7  H   GLU A   1      13.696  -6.806  18.630  0.00  0.00    +0.142 HD
ENDBRANCH   5   6
BRANCH   5   8
ATOM      8  CB  GLU A   1      15.623  -5.114  19.117  0.00  0.00    +0.038 C 
BRANCH   8   9
ATOM      9  CG  GLU A   1      16.156  -4.955  17.633  0.00  0.00    +0.116 C 
BRANCH   9  10
ATOM     10  CD  GLU A   1      16.827  -3.624  17.427  0.00  0.00    +0.365 C 
ATOM     11  OE2 GLU A   1      16.227  -2.566  17.735  0.00  0.00    -0.246 OA
ATOM     12  OE1 GLU A   1      17.979  -3.645  17.005  0.00  0.00    -0.246 OA
ENDBRANCH   9  10
ENDBRANCH   8   9
ENDBRANCH   5   8
ENDBRANCH   1   5
BRANCH   3  13
ATOM     13  CA  HIS A   2      13.672  -6.623  22.779  0.00  0.00    +0.143 C 
BRANCH  13  14
ATOM     14  C   HIS A   2      13.361  -8.105  22.833  0.00  0.00    +0.227 C 
ATOM     15  O   HIS A   2      12.970  -8.726  21.829  0.00  0.00    -0.286 OA
ENDBRANCH  13  14
BRANCH  13  16
ATOM     16  CB  HIS A   2      12.427  -5.796  23.102  0.00  0.00    +0.075 C 
BRANCH  16  17
ATOM     17  CG  HIS A   2      12.759  -4.359  23.319  0.00  0.00    +0.082 A 
ATOM     18  CD2 HIS A   2      13.202  -3.710  24.418  0.00  0.00    +0.115 A 
ATOM     19  NE2 HIS A   2      13.405  -2.405  24.060  0.00  0.00    -0.221 NA
ATOM     20  CE1 HIS A   2      13.061  -2.246  22.791  0.00  0.00    +0.199 A 
ATOM     21  ND1 HIS A   2      12.663  -3.414  22.325  0.00  0.00    -0.227 NA
ENDBRANCH  16  17
ENDBRANCH  13  16
ENDBRANCH   3  13
TORSDOF 9
REMARK  Name = ../refined-set-2016/2weh/2weh_pocket.pdb
REMARK  149 active torsions:
REMARK  status: ('A' for Active; 'I' for Inactive)
REMARK    1  A    between atoms: _1  and  _3
REMARK    2  A    between atoms: _3  and  _4
REMARK    3  A    between atoms: _3  and  _6
REMARK    4  A    between atoms: _6  and  _7
REMARK    5  A    between atoms: _17  and  _19
REMARK    6  A    between atoms: _19  and  _20
REMARK    7  A    between atoms: _19  and  _22
REMARK    8  A    between atoms: _22  and  _23
REMARK    9  A    between atoms: _28  and  _29
REMARK   10  A    between atoms: _31  and  _33
REMARK   11  A    between atoms: _33  and  _34
REMARK   12  A    between atoms: _33  and  _36
REMARK   13  A    between atoms: _36  and  _37
REMARK   14  A    between atoms: _40  and  _41
REMARK   15  A    between atoms: _46  and  _48
REMARK   16  A    between atoms: _48  and  _49
REMARK   17  A    between atoms: _48  and  _51
REMARK   18  A    between atoms: _51  and  _52
REMARK   19  A    between atoms: _57  and  _59
REMARK   20  A    between atoms: _59  and  _60
REMARK   21  A    between atoms: _63  and  _65
REMARK   22  A    between atoms: _65  and  _66
REMARK   23  A    between atoms: _65  and  _68
REMARK   24  A    between atoms: _68  and  _69
REMARK   25  A    between atoms: _74  and  _76
REMARK   26  A    between atoms: _76  and  _77
REMARK   27  A    between atoms: _76  and  _79
REMARK   28  A    between atoms: _79  and  _80
REMARK   29  A    between atoms: _83  and  _85
REMARK   30  A    between atoms: _85  and  _86
REMARK   31  A    between atoms: _85  and  _88
REMARK   32  A    between atoms: _88  and  _89
REMARK   33  A    between atoms: _89  and  _90
REMARK   34  A    between atoms: _95  and  _97
REMARK   35  A    between atoms: _97  and  _98
REMARK   36  A    between atoms: _97  and  _100
REMARK   37  A    between atoms: _100  and  _101
REMARK   38  A    between atoms: _107  and  _109
REMARK   39  A    between atoms: _120  and  _123
REMARK   40  A    between atoms: _123  and  _124
REMARK   41  A    between atoms: _132  and  _133
REMARK   42  A    between atoms: _141  and  _143
REMARK   43  A    between atoms: _143  and  _144
REMARK   44  A    between atoms: _143  and  _146
REMARK   45  A    between atoms: _146  and  _147
REMARK   46  A    between atoms: _147  and  _148
REMARK   47  A    between atoms: _151  and  _153
REMARK   48  A    between atoms: _153  and  _154
REMARK   49  A    between atoms: _153  and  _156
REMARK   50  A    between atoms: _156  and  _157
REMARK   51  A    between atoms: _162  and  _164
REMARK   52  A    between atoms: _164  and  _165
REMARK   53  A    between atoms: _164  and  _167
REMARK   54  A    between atoms: _167  and  _168
REMARK   55  A    between atoms: _168  and  _169
REMARK   56  A    between atoms: _172  and  _174
REMARK   57  A    between atoms: _174  and  _175
REMARK   58  A    between atoms: _174  and  _177
REMARK   59  A    between atoms: _177  and  _178
REMARK   60  A    between atoms: _181  and  _183
REMARK   61  A    between atoms: _183  and  _184
REMARK   62  A    between atoms: _183  and  _186
REMARK   63  A    between atoms: _186  and  _187
REMARK   64  A    between atoms: _188  and  ZN_417
REMARK   65  A    between atoms: _192  and  _194
REMARK   66  A    between atoms: _194  and  _195
REMARK   67  A    between atoms: _194  and  _197
REMARK   68  A    between atoms: _197  and  _198
REMARK   69  A    between atoms: _201  and  _203
REMARK   70  A    between atoms: _203  and  _204
REMARK   71  A    between atoms: _203  and  _206
REMARK   72  A    between atoms: _209  and  _211
REMARK   73  A    between atoms: _211  and  _212
REMARK   74  A    between atoms: _211  and  _214
REMARK   75  A    between atoms: _214  and  _215
REMARK   76  A    between atoms: _220  and  _222
REMARK   77  A    between atoms: _222  and  _223
REMARK   78  A    between atoms: _222  and  _225
REMARK   79  A    between atoms: _225  and  _226
REMARK   80  A    between atoms: _232  and  _234
REMARK   81  A    between atoms: _234  and  _235
REMARK   82  A    between atoms: _234  and  _237
REMARK   83  A    between atoms: _240  and  _242
REMARK   84  A    between atoms: _242  and  _243
REMARK   85  A    between atoms: _242  and  _245
REMARK   86  A    between atoms: _245  and  _246
REMARK   87  A    between atoms: _249  and  _251
REMARK   88  A    between atoms: _251  and  _252
REMARK   89  A    between atoms: _255  and  _257
REMARK   90  A    between atoms: _257  and  _258
REMARK   91  A    between atoms: _257  and  _260
REMARK   92  A    between atoms: _263  and  _265
REMARK   93  A    between atoms: _265  and  _266
REMARK   94  A    between atoms: _265  and  _268
REMARK   95  A    between atoms: _268  and  _269
REMARK   96  A    between atoms: _272  and  _274
REMARK   97  A    between atoms: _274  and  _275
REMARK   98  A    between atoms: _277  and  _279
REMARK   99  A    between atoms: _279  and  _280
REMARK  100  A    between atoms: _282  and  _284
REMARK  101  A    between atoms: _284  and  _285
REMARK  102  A    between atoms: _284  and  _287
REMARK  103  A    between atoms: _287  and  _288
REMARK  104  A    between atoms: _290  and  _292
REMARK  105  A    between atoms: _292  and  _293
REMARK  106  A    between atoms: _292  and  _295
REMARK  107  A    between atoms: _295  and  _296
REMARK  108  A    between atoms: _299  and  _301
REMARK  109  A    between atoms: _301  and  _302
REMARK  110  A    between atoms: _301  and  _304
REMARK  111  A    between atoms: _304  and  _305
REMARK  112  A    between atoms: _308  and  _310
REMARK  113  A    between atoms: _310  and  _311
REMARK  114  A    between atoms: _310  and  _313
REMARK  115  A    between atoms: _313  and  _314
REMARK  116  A    between atoms: _318  and  _319
REMARK  117  A    between atoms: _325  and  _326
REMARK  118  A    between atoms: _331  and  _333
REMARK  119  A    between atoms: _333  and  _334
REMARK  120  A    between atoms: _333  and  _336
REMARK  121  A    between atoms: _336  and  _337
REMARK  122  A    between atoms: _340  and  _342
REMARK  123  A    between atoms: _342  and  _343
REMARK  124  A    between atoms: _342  and  _345
REMARK  125  A    between atoms: _345  and  _346
REMARK  126  A    between atoms: _349  and  _351
REMARK  127  A    between atoms: _351  and  _352
REMARK  128  A    between atoms: _351  and  _354
REMARK  129  A    between atoms: _356  and  _358
REMARK  130  A    between atoms: _358  and  _359
REMARK  131  A    between atoms: _358  and  _361
REMARK  132  A    between atoms: _364  and  _366
REMARK  133  A    between atoms: _366  and  _367
REMARK  134  A    between atoms: _366  and  _369
REMARK  135  A    between atoms: _369  and  _370
REMARK  136  A    between atoms: _373  and  _375
REMARK  137  A    between atoms: _375  and  _376
REMARK  138  A    between atoms: _375  and  _378
REMARK  139  A    between atoms: _378  and  _379
REMARK  140  A    between atoms: _389  and  _391
REMARK  141  A    between atoms: _391  and  _392
REMARK  142  A    between atoms: _391  and  _394
REMARK  143  A    between atoms: _394  and  _395
REMARK  144  A    between atoms: _400  and  _402
REMARK  145  A    between atoms: _402  and  _403
REMARK  146  A    between atoms: _402  and  _405
REMARK  147  A    between atoms: _405  and  _406
REMARK  148  A    between atoms: _406  and  _407
REMARK  149  A    between atoms: _407  and  _408
REMARK                            x       y       z     vdW  Elec       q    Type
REMARK                         _______ _______ _______ _____ _____    ______ ____
ROOT
ATOM      1  CB  PHE A   1      13.521  14.259  13.941  0.00  0.00    +0.051 C 
ENDROOT
BRANCH   1   2
ATOM      2  CG  PHE A   1      14.124  12.946  14.234  0.00  0.00    -0.020 A 
ATOM      3  CD2 PHE A   1      13.414  11.977  14.956  0.00  0.00    -0.004 A 
ATOM      4  CE2 PHE A   1      13.961  10.718  15.219  0.00  0.00    -0.000 A 
ATOM      5  CZ  PHE A   1      15.269  10.438  14.829  0.00  0.00    -0.000 A 
ATOM      6  CE1 PHE A   1      16.002  11.416  14.117  0.00  0.00    -0.000 A 
ATOM      7  CD1 PHE A   1      15.426  12.650  13.810  0.00  0.00    -0.004 A 
ENDBRANCH   1   2
BRANCH   1   8
ATOM      8  CA  PHE A   1      13.545  15.231  15.135  0.00  0.00    +0.137 C 
BRANCH   8   9
ATOM      9  N   PHE A   1      13.002  16.581  14.763  0.00  0.00    -0.239 NA
ATOM     10  H   PHE A   1      12.744  16.750  13.770  0.00  0.00    +0.142 HD
ENDBRANCH   8   9
BRANCH   8  11
ATOM     11  C   PHE A   1      14.977  15.409  15.595  0.00  0.00    +0.224 C 
ATOM     12  O   PHE A   1      15.389  14.821  16.595  0.00  0.00    -0.287 OA
ENDBRANCH   8  11
ENDBRANCH   1   8
TORSDOF 4
REMARK  Name = ../refined-set-2016/2weh/2weh_pocket.pdb
REMARK  149 active torsions:
REMARK  status: ('A' for Active; 'I' for Inactive)
REMARK    1  A    between atoms: _1  and  _3
REMARK    2  A    between atoms: _3  and  _4
REMARK    3  A    between atoms: _3  and  _6
REMARK    4  A    between atoms: _6  and  _7
REMARK    5  A    between atoms: _17  and  _19
REMARK    6  A    between atoms: _19  and  _20
REMARK    7  A    between atoms: _19  and  _22
REMARK    8  A    between atoms: _22  and  _23
REMARK    9  A    between atoms: _28  and  _29
REMARK   10  A    between atoms: _31  and  _33
REMARK   11  A    between atoms: _33  and  _34
REMARK   12  A    between atoms: _33  and  _36
REMARK   13  A    between atoms: _36  and  _37
REMARK   14  A    between atoms: _40  and  _41
REMARK   15  A    between atoms: _46  and  _48
REMARK   16  A    between atoms: _48  and  _49
REMARK   17  A    between atoms: _48  and  _51
REMARK   18  A    between atoms: _51  and  _52
REMARK   19  A    between atoms: _57  and  _59
REMARK   20  A    between atoms: _59  and  _60
REMARK   21  A    between atoms: _63  and  _65
REMARK   22  A    between atoms: _65  and  _66
REMARK   23  A    between atoms: _65  and  _68
REMARK   24  A    between atoms: _68  and  _69
REMARK   25  A    between atoms: _74  and  _76
REMARK   26  A    between atoms: _76  and  _77
REMARK   27  A    between atoms: _76  and  _79
REMARK   28  A    between atoms: _79  and  _80
REMARK   29  A    between atoms: _83  and  _85
REMARK   30  A    between atoms: _85  and  _86
REMARK   31  A    between atoms: _85  and  _88
REMARK   32  A    between atoms: _88  and  _89
REMARK   33  A    between atoms: _89  and  _90
REMARK   34  A    between atoms: _95  and  _97
REMARK   35  A    between atoms: _97  and  _98
REMARK   36  A    between atoms: _97  and  _100
REMARK   37  A    between atoms: _100  and  _101
REMARK   38  A    between atoms: _107  and  _109
REMARK   39  A    between atoms: _120  and  _123
REMARK   40  A    between atoms: _123  and  _124
REMARK   41  A    between atoms: _132  and  _133
REMARK   42  A    between atoms: _141  and  _143
REMARK   43  A    between atoms: _143  and  _144
REMARK   44  A    between atoms: _143  and  _146
REMARK   45  A    between atoms: _146  and  _147
REMARK   46  A    between atoms: _147  and  _148
REMARK   47  A    between atoms: _151  and  _153
REMARK   48  A    between atoms: _153  and  _154
REMARK   49  A    between atoms: _153  and  _156
REMARK   50  A    between atoms: _156  and  _157
REMARK   51  A    between atoms: _162  and  _164
REMARK   52  A    between atoms: _164  and  _165
REMARK   53  A    between atoms: _164  and  _167
REMARK   54  A    between atoms: _167  and  _168
REMARK   55  A    between atoms: _168  and  _169
REMARK   56  A    between atoms: _172  and  _174
REMARK   57  A    between atoms: _174  and  _175
REMARK   58  A    between atoms: _174  and  _177
REMARK   59  A    between atoms: _177  and  _178
REMARK   60  A    between atoms: _181  and  _183
REMARK   61  A    between atoms: _183  and  _184
REMARK   62  A    between atoms: _183  and  _186
REMARK   63  A    between atoms: _186  and  _187
REMARK   64  A    between atoms: _188  and  ZN_417
REMARK   65  A    between atoms: _192  and  _194
REMARK   66  A    between atoms: _194  and  _195
REMARK   67  A    between atoms: _194  and  _197
REMARK   68  A    between atoms: _197  and  _198
REMARK   69  A    between atoms: _201  and  _203
REMARK   70  A    between atoms: _203  and  _204
REMARK   71  A    between atoms: _203  and  _206
REMARK   72  A    between atoms: _209  and  _211
REMARK   73  A    between atoms: _211  and  _212
REMARK   74  A    between atoms: _211  and  _214
REMARK   75  A    between atoms: _214  and  _215
REMARK   76  A    between atoms: _220  and  _222
REMARK   77  A    between atoms: _222  and  _223
REMARK   78  A    between atoms: _222  and  _225
REMARK   79  A    between atoms: _225  and  _226
REMARK   80  A    between atoms: _232  and  _234
REMARK   81  A    between atoms: _234  and  _235
REMARK   82  A    between atoms: _234  and  _237
REMARK   83  A    between atoms: _240  and  _242
REMARK   84  A    between atoms: _242  and  _243
REMARK   85  A    between atoms: _242  and  _245
REMARK   86  A    between atoms: _245  and  _246
REMARK   87  A    between atoms: _249  and  _251
REMARK   88  A    between atoms: _251  and  _252
REMARK   89  A    between atoms: _255  and  _257
REMARK   90  A    between atoms: _257  and  _258
REMARK   91  A    between atoms: _257  and  _260
REMARK   92  A    between atoms: _263  and  _265
REMARK   93  A    between atoms: _265  and  _266
REMARK   94  A    between atoms: _265  and  _268
REMARK   95  A    between atoms: _268  and  _269
REMARK   96  A    between atoms: _272  and  _274
REMARK   97  A    between atoms: _274  and  _275
REMARK   98  A    between atoms: _277  and  _279
REMARK   99  A    between atoms: _279  and  _280
REMARK  100  A    between atoms: _282  and  _284
REMARK  101  A    between atoms: _284  and  _285
REMARK  102  A    between atoms: _284  and  _287
REMARK  103  A    between atoms: _287  and  _288
REMARK  104  A    between atoms: _290  and  _292
REMARK  105  A    between atoms: _292  and  _293
REMARK  106  A    between atoms: _292  and  _295
REMARK  107  A    between atoms: _295  and  _296
REMARK  108  A    between atoms: _299  and  _301
REMARK  109  A    between atoms: _301  and  _302
REMARK  110  A    between atoms: _301  and  _304
REMARK  111  A    between atoms: _304  and  _305
REMARK  112  A    between atoms: _308  and  _310
REMARK  113  A    between atoms: _310  and  _311
REMARK  114  A    between atoms: _310  and  _313
REMARK  115  A    between atoms: _313  and  _314
REMARK  116  A    between atoms: _318  and  _319
REMARK  117  A    between atoms: _325  and  _326
REMARK  118  A    between atoms: _331  and  _333
REMARK  119  A    between atoms: _333  and  _334
REMARK  120  A    between atoms: _333  and  _336
REMARK  121  A    between atoms: _336  and  _337
REMARK  122  A    between atoms: _340  and  _342
REMARK  123  A    between atoms: _342  and  _343
REMARK  124  A    between atoms: _342  and  _345
REMARK  125  A    between atoms: _345  and  _346
REMARK  126  A    between atoms: _349  and  _351
REMARK  127  A    between atoms: _351  and  _352
REMARK  128  A    between atoms: _351  and  _354
REMARK  129  A    between atoms: _356  and  _358
REMARK  130  A    between atoms: _358  and  _359
REMARK  131  A    between atoms: _358  and  _361
REMARK  132  A    between atoms: _364  and  _366
REMARK  133  A    between atoms: _366  and  _367
REMARK  134  A    between atoms: _366  and  _369
REMARK  135  A    between atoms: _369  and  _370
REMARK  136  A    between atoms: _373  and  _375
REMARK  137  A    between atoms: _375  and  _376
REMARK  138  A    between atoms: _375  and  _378
REMARK  139  A    between atoms: _378  and  _379
REMARK  140  A    between atoms: _389  and  _391
REMARK  141  A    between atoms: _391  and  _392
REMARK  142  A    between atoms: _391  and  _394
REMARK  143  A    between atoms: _394  and  _395
REMARK  144  A    between atoms: _400  and  _402
REMARK  145  A    between atoms: _402  and  _403
REMARK  146  A    between atoms: _402  and  _405
REMARK  147  A    between atoms: _405  and  _406
REMARK  148  A    between atoms: _406  and  _407
REMARK  149  A    between atoms: _407  and  _408
REMARK                            x       y       z     vdW  Elec       q    Type
REMARK                         _______ _______ _______ _____ _____    ______ ____
ROOT
ATOM      1  CA  VAL A   1      17.234  13.168  19.879  0.00  0.00    +0.133 C 
ENDROOT
BRANCH   1   2
ATOM      2  CB  VAL A   1      17.934  12.545  18.550  0.00  0.00    +0.023 C 
ATOM      3  CG2 VAL A   1      18.763  13.518  17.748  0.00  0.00    +0.002 C 
ATOM      4  CG1 VAL A   1      16.879  11.851  17.656  0.00  0.00    +0.002 C 
ENDBRANCH   1   2
BRANCH   1   5
ATOM      5  N   VAL A   1      16.284  14.284  19.545  0.00  0.00    -0.239 NA
ATOM      6  H   VAL A   1      16.269  14.668  18.579  0.00  0.00    +0.142 HD
ENDBRANCH   1   5
BRANCH   1   7
ATOM      7  C   VAL A   1      18.355  13.605  20.876  0.00  0.00    +0.224 C 
ATOM      8  O   VAL A   1      19.030  12.766  21.518  0.00  0.00    -0.287 OA
ENDBRANCH   1   7
TORSDOF 3
REMARK  Name = ../refined-set-2016/2weh/2weh_pocket.pdb
REMARK  149 active torsions:
REMARK  status: ('A' for Active; 'I' for Inactive)
REMARK    1  A    between atoms: _1  and  _3
REMARK    2  A    between atoms: _3  and  _4
REMARK    3  A    between atoms: _3  and  _6
REMARK    4  A    between atoms: _6  and  _7
REMARK    5  A    between atoms: _17  and  _19
REMARK    6  A    between atoms: _19  and  _20
REMARK    7  A    between atoms: _19  and  _22
REMARK    8  A    between atoms: _22  and  _23
REMARK    9  A    between atoms: _28  and  _29
REMARK   10  A    between atoms: _31  and  _33
REMARK   11  A    between atoms: _33  and  _34
REMARK   12  A    between atoms: _33  and  _36
REMARK   13  A    between atoms: _36  and  _37
REMARK   14  A    between atoms: _40  and  _41
REMARK   15  A    between atoms: _46  and  _48
REMARK   16  A    between atoms: _48  and  _49
REMARK   17  A    between atoms: _48  and  _51
REMARK   18  A    between atoms: _51  and  _52
REMARK   19  A    between atoms: _57  and  _59
REMARK   20  A    between atoms: _59  and  _60
REMARK   21  A    between atoms: _63  and  _65
REMARK   22  A    between atoms: _65  and  _66
REMARK   23  A    between atoms: _65  and  _68
REMARK   24  A    between atoms: _68  and  _69
REMARK   25  A    between atoms: _74  and  _76
REMARK   26  A    between atoms: _76  and  _77
REMARK   27  A    between atoms: _76  and  _79
REMARK   28  A    between atoms: _79  and  _80
REMARK   29  A    between atoms: _83  and  _85
REMARK   30  A    between atoms: _85  and  _86
REMARK   31  A    between atoms: _85  and  _88
REMARK   32  A    between atoms: _88  and  _89
REMARK   33  A    between atoms: _89  and  _90
REMARK   34  A    between atoms: _95  and  _97
REMARK   35  A    between atoms: _97  and  _98
REMARK   36  A    between atoms: _97  and  _100
REMARK   37  A    between atoms: _100  and  _101
REMARK   38  A    between atoms: _107  and  _109
REMARK   39  A    between atoms: _120  and  _123
REMARK   40  A    between atoms: _123  and  _124
REMARK   41  A    between atoms: _132  and  _133
REMARK   42  A    between atoms: _141  and  _143
REMARK   43  A    between atoms: _143  and  _144
REMARK   44  A    between atoms: _143  and  _146
REMARK   45  A    between atoms: _146  and  _147
REMARK   46  A    between atoms: _147  and  _148
REMARK   47  A    between atoms: _151  and  _153
REMARK   48  A    between atoms: _153  and  _154
REMARK   49  A    between atoms: _153  and  _156
REMARK   50  A    between atoms: _156  and  _157
REMARK   51  A    between atoms: _162  and  _164
REMARK   52  A    between atoms: _164  and  _165
REMARK   53  A    between atoms: _164  and  _167
REMARK   54  A    between atoms: _167  and  _168
REMARK   55  A    between atoms: _168  and  _169
REMARK   56  A    between atoms: _172  and  _174
REMARK   57  A    between atoms: _174  and  _175
REMARK   58  A    between atoms: _174  and  _177
REMARK   59  A    between atoms: _177  and  _178
REMARK   60  A    between atoms: _181  and  _183
REMARK   61  A    between atoms: _183  and  _184
REMARK   62  A    between atoms: _183  and  _186
REMARK   63  A    between atoms: _186  and  _187
REMARK   64  A    between atoms: _188  and  ZN_417
REMARK   65  A    between atoms: _192  and  _194
REMARK   66  A    between atoms: _194  and  _195
REMARK   67  A    between atoms: _194  and  _197
REMARK   68  A    between atoms: _197  and  _198
REMARK   69  A    between atoms: _201  and  _203
REMARK   70  A    between atoms: _203  and  _204
REMARK   71  A    between atoms: _203  and  _206
REMARK   72  A    between atoms: _209  and  _211
REMARK   73  A    between atoms: _211  and  _212
REMARK   74  A    between atoms: _211  and  _214
REMARK   75  A    between atoms: _214  and  _215
REMARK   76  A    between atoms: _220  and  _222
REMARK   77  A    between atoms: _222  and  _223
REMARK   78  A    between atoms: _222  and  _225
REMARK   79  A    between atoms: _225  and  _226
REMARK   80  A    between atoms: _232  and  _234
REMARK   81  A    between atoms: _234  and  _235
REMARK   82  A    between atoms: _234  and  _237
REMARK   83  A    between atoms: _240  and  _242
REMARK   84  A    between atoms: _242  and  _243
REMARK   85  A    between atoms: _242  and  _245
REMARK   86  A    between atoms: _245  and  _246
REMARK   87  A    between atoms: _249  and  _251
REMARK   88  A    between atoms: _251  and  _252
REMARK   89  A    between atoms: _255  and  _257
REMARK   90  A    between atoms: _257  and  _258
REMARK   91  A    between atoms: _257  and  _260
REMARK   92  A    between atoms: _263  and  _265
REMARK   93  A    between atoms: _265  and  _266
REMARK   94  A    between atoms: _265  and  _268
REMARK   95  A    between atoms: _268  and  _269
REMARK   96  A    between atoms: _272  and  _274
REMARK   97  A    between atoms: _274  and  _275
REMARK   98  A    between atoms: _277  and  _279
REMARK   99  A    between atoms: _279  and  _280
REMARK  100  A    between atoms: _282  and  _284
REMARK  101  A    between atoms: _284  and  _285
REMARK  102  A    between atoms: _284  and  _287
REMARK  103  A    between atoms: _287  and  _288
REMARK  104  A    between atoms: _290  and  _292
REMARK  105  A    between atoms: _292  and  _293
REMARK  106  A    between atoms: _292  and  _295
REMARK  107  A    between atoms: _295  and  _296
REMARK  108  A    between atoms: _299  and  _301
REMARK  109  A    between atoms: _301  and  _302
REMARK  110  A    between atoms: _301  and  _304
REMARK  111  A    between atoms: _304  and  _305
REMARK  112  A    between atoms: _308  and  _310
REMARK  113  A    between atoms: _310  and  _311
REMARK  114  A    between atoms: _310  and  _313
REMARK  115  A    between atoms: _313  and  _314
REMARK  116  A    between atoms: _318  and  _319
REMARK  117  A    between atoms: _325  and  _326
REMARK  118  A    between atoms: _331  and  _333
REMARK  119  A    between atoms: _333  and  _334
REMARK  120  A    between atoms: _333  and  _336
REMARK  121  A    between atoms: _336  and  _337
REMARK  122  A    between atoms: _340  and  _342
REMARK  123  A    between atoms: _342  and  _343
REMARK  124  A    between atoms: _342  and  _345
REMARK  125  A    between atoms: _345  and  _346
REMARK  126  A    between atoms: _349  and  _351
REMARK  127  A    between atoms: _351  and  _352
REMARK  128  A    between atoms: _351  and  _354
REMARK  129  A    between atoms: _356  and  _358
REMARK  130  A    between atoms: _358  and  _359
REMARK  131  A    between atoms: _358  and  _361
REMARK  132  A    between atoms: _364  and  _366
REMARK  133  A    between atoms: _366  and  _367
REMARK  134  A    between atoms: _366  and  _369
REMARK  135  A    between atoms: _369  and  _370
REMARK  136  A    between atoms: _373  and  _375
REMARK  137  A    between atoms: _375  and  _376
REMARK  138  A    between atoms: _375  and  _378
REMARK  139  A    between atoms: _378  and  _379
REMARK  140  A    between atoms: _389  and  _391
REMARK  141  A    between atoms: _391  and  _392
REMARK  142  A    between atoms: _391  and  _394
REMARK  143  A    between atoms: _394  and  _395
REMARK  144  A    between atoms: _400  and  _402
REMARK  145  A    between atoms: _402  and  _403
REMARK  146  A    between atoms: _402  and  _405
REMARK  147  A    between atoms: _405  and  _406
REMARK  148  A    between atoms: _406  and  _407
REMARK  149  A    between atoms: _407  and  _408
REMARK                            x       y       z     vdW  Elec       q    Type
REMARK                         _______ _______ _______ _____ _____    ______ ____
ROOT
ATOM      1  CA  VAL A   3       9.212   4.448  20.084  0.00  0.00    +0.149 C 
ENDROOT
BRANCH   1   3
ATOM      2  C   ALA A   2       8.776   6.651  20.862  0.00  0.00    +0.241 C 
ATOM      3  N   VAL A   3       9.306   5.451  21.093  0.00  0.00    -0.297 N 
ATOM      4  H   VAL A   3       9.781   5.249  21.996  0.00  0.00    +0.150 HD
ATOM      5  O   ALA A   2       8.359   6.937  19.757  0.00  0.00    -0.273 OA
BRANCH   2   6
ATOM      6  CA  ALA A   2       8.852   7.729  21.976  0.00  0.00    +0.149 C 
ATOM      7  CB  ALA A   2       7.452   8.327  22.335  0.00  0.00    +0.031 C 
BRANCH   6  10
ATOM      8  C   LEU A   1      10.683   9.339  22.118  0.00  0.00    +0.238 C 
ATOM      9  O   LEU A   1      10.900   9.046  23.300  0.00  0.00    -0.274 OA
ATOM     10  N   ALA A   2       9.696   8.814  21.414  0.00  0.00    -0.297 N 
ATOM     11  H   ALA A   2       9.508   9.165  20.453  0.00  0.00    +0.150 HD
BRANCH   8  12
ATOM     12  CA  LEU A   1      11.593  10.286  21.348  0.00  0.00    +0.145 C 
BRANCH  12  13
ATOM     13  N   LEU A   1      12.267  11.188  22.270  0.00  0.00    -0.238 NA
ATOM     14  H   LEU A   1      12.855  10.821  23.046  0.00  0.00    +0.142 HD
ENDBRANCH  12  13
BRANCH  12  15
ATOM     15  CB  LEU A   1      12.565   9.437  20.494  0.00  0.00    +0.026 C 
BRANCH  15  16
ATOM     16  CG  LEU A   1      13.550  10.063  19.506  0.00  0.00    +0.002 C 
ATOM     17  CD2 LEU A   1      12.953  11.241  18.725  0.00  0.00    +0.000 C 
ATOM     18  CD1 LEU A   1      14.145   9.014  18.532  0.00  0.00    +0.000 C 
ENDBRANCH  15  16
ENDBRANCH  12  15
ENDBRANCH   8  12
ENDBRANCH   6  10
ENDBRANCH   2   6
ENDBRANCH   1   3
BRANCH   1  19
ATOM     19  C   VAL A   3       8.177   3.430  20.592  0.00  0.00    +0.241 C 
ATOM     20  O   VAL A   3       8.276   2.926  21.740  0.00  0.00    -0.273 OA
ATOM     21  N   LEU A   4       7.163   3.144  19.733  0.00  0.00    -0.297 N 
ATOM     22  H   LEU A   4       7.043   3.725  18.879  0.00  0.00    +0.150 HD
BRANCH  21  23
ATOM     23  CA  LEU A   4       6.214   2.012  19.987  0.00  0.00    +0.149 C 
BRANCH  23  24
ATOM     24  C   LEU A   4       6.763   0.710  19.374  0.00  0.00    +0.241 C 
ATOM     25  N   GLY A   5       7.112  -0.303  20.189  0.00  0.00    -0.296 N 
ATOM     26  H   GLY A   5       6.918  -0.199  21.205  0.00  0.00    +0.150 HD
ATOM     27  O   LEU A   4       6.912   0.683  18.158  0.00  0.00    -0.273 OA
BRANCH  25  28
ATOM     28  CA  GLY A   5       7.758  -1.564  19.728  0.00  0.00    +0.163 C 
BRANCH  28  29
ATOM     29  C   GLY A   5       6.648  -2.624  19.589  0.00  0.00    +0.229 C 
ATOM     30  O   GLY A   5       5.800  -2.782  20.483  0.00  0.00    -0.286 OA
ENDBRANCH  28  29
ENDBRANCH  25  28
ENDBRANCH  23  24
BRANCH  23  31
ATOM     31  CB  LEU A   4       4.822   2.349  19.388  0.00  0.00    +0.029 C 
BRANCH  31  32
ATOM     32  CG  LEU A   4       3.653   1.451  19.634  0.00  0.00    +0.002 C 
ATOM     33  CD2 LEU A   4       3.454   1.385  21.154  0.00  0.00    +0.000 C 
ATOM     34  CD1 LEU A   4       2.380   2.000  18.902  0.00  0.00    +0.000 C 
ENDBRANCH  31  32
ENDBRANCH  23  31
ENDBRANCH  21  23
ENDBRANCH   1  19
BRANCH   1  35
ATOM     35  CB  VAL A   3      10.582   3.787  19.723  0.00  0.00    +0.027 C 
ATOM     36  CG2 VAL A   3      11.578   4.858  19.330  0.00  0.00    +0.002 C 
ATOM     37  CG1 VAL A   3      10.441   2.853  18.551  0.00  0.00    +0.002 C 
ENDBRANCH   1  35
TORSDOF 15
REMARK  Name = ../refined-set-2016/2weh/2weh_pocket.pdb
REMARK  149 active torsions:
REMARK  status: ('A' for Active; 'I' for Inactive)
REMARK    1  A    between atoms: _1  and  _3
REMARK    2  A    between atoms: _3  and  _4
REMARK    3  A    between atoms: _3  and  _6
REMARK    4  A    between atoms: _6  and  _7
REMARK    5  A    between atoms: _17  and  _19
REMARK    6  A    between atoms: _19  and  _20
REMARK    7  A    between atoms: _19  and  _22
REMARK    8  A    between atoms: _22  and  _23
REMARK    9  A    between atoms: _28  and  _29
REMARK   10  A    between atoms: _31  and  _33
REMARK   11  A    between atoms: _33  and  _34
REMARK   12  A    between atoms: _33  and  _36
REMARK   13  A    between atoms: _36  and  _37
REMARK   14  A    between atoms: _40  and  _41
REMARK   15  A    between atoms: _46  and  _48
REMARK   16  A    between atoms: _48  and  _49
REMARK   17  A    between atoms: _48  and  _51
REMARK   18  A    between atoms: _51  and  _52
REMARK   19  A    between atoms: _57  and  _59
REMARK   20  A    between atoms: _59  and  _60
REMARK   21  A    between atoms: _63  and  _65
REMARK   22  A    between atoms: _65  and  _66
REMARK   23  A    between atoms: _65  and  _68
REMARK   24  A    between atoms: _68  and  _69
REMARK   25  A    between atoms: _74  and  _76
REMARK   26  A    between atoms: _76  and  _77
REMARK   27  A    between atoms: _76  and  _79
REMARK   28  A    between atoms: _79  and  _80
REMARK   29  A    between atoms: _83  and  _85
REMARK   30  A    between atoms: _85  and  _86
REMARK   31  A    between atoms: _85  and  _88
REMARK   32  A    between atoms: _88  and  _89
REMARK   33  A    between atoms: _89  and  _90
REMARK   34  A    between atoms: _95  and  _97
REMARK   35  A    between atoms: _97  and  _98
REMARK   36  A    between atoms: _97  and  _100
REMARK   37  A    between atoms: _100  and  _101
REMARK   38  A    between atoms: _107  and  _109
REMARK   39  A    between atoms: _120  and  _123
REMARK   40  A    between atoms: _123  and  _124
REMARK   41  A    between atoms: _132  and  _133
REMARK   42  A    between atoms: _141  and  _143
REMARK   43  A    between atoms: _143  and  _144
REMARK   44  A    between atoms: _143  and  _146
REMARK   45  A    between atoms: _146  and  _147
REMARK   46  A    between atoms: _147  and  _148
REMARK   47  A    between atoms: _151  and  _153
REMARK   48  A    between atoms: _153  and  _154
REMARK   49  A    between atoms: _153  and  _156
REMARK   50  A    between atoms: _156  and  _157
REMARK   51  A    between atoms: _162  and  _164
REMARK   52  A    between atoms: _164  and  _165
REMARK   53  A    between atoms: _164  and  _167
REMARK   54  A    between atoms: _167  and  _168
REMARK   55  A    between atoms: _168  and  _169
REMARK   56  A    between atoms: _172  and  _174
REMARK   57  A    between atoms: _174  and  _175
REMARK   58  A    between atoms: _174  and  _177
REMARK   59  A    between atoms: _177  and  _178
REMARK   60  A    between atoms: _181  and  _183
REMARK   61  A    between atoms: _183  and  _184
REMARK   62  A    between atoms: _183  and  _186
REMARK   63  A    between atoms: _186  and  _187
REMARK   64  A    between atoms: _188  and  ZN_417
REMARK   65  A    between atoms: _192  and  _194
REMARK   66  A    between atoms: _194  and  _195
REMARK   67  A    between atoms: _194  and  _197
REMARK   68  A    between atoms: _197  and  _198
REMARK   69  A    between atoms: _201  and  _203
REMARK   70  A    between atoms: _203  and  _204
REMARK   71  A    between atoms: _203  and  _206
REMARK   72  A    between atoms: _209  and  _211
REMARK   73  A    between atoms: _211  and  _212
REMARK   74  A    between atoms: _211  and  _214
REMARK   75  A    between atoms: _214  and  _215
REMARK   76  A    between atoms: _220  and  _222
REMARK   77  A    between atoms: _222  and  _223
REMARK   78  A    between atoms: _222  and  _225
REMARK   79  A    between atoms: _225  and  _226
REMARK   80  A    between atoms: _232  and  _234
REMARK   81  A    between atoms: _234  and  _235
REMARK   82  A    between atoms: _234  and  _237
REMARK   83  A    between atoms: _240  and  _242
REMARK   84  A    between atoms: _242  and  _243
REMARK   85  A    between atoms: _242  and  _245
REMARK   86  A    between atoms: _245  and  _246
REMARK   87  A    between atoms: _249  and  _251
REMARK   88  A    between atoms: _251  and  _252
REMARK   89  A    between atoms: _255  and  _257
REMARK   90  A    between atoms: _257  and  _258
REMARK   91  A    between atoms: _257  and  _260
REMARK   92  A    between atoms: _263  and  _265
REMARK   93  A    between atoms: _265  and  _266
REMARK   94  A    between atoms: _265  and  _268
REMARK   95  A    between atoms: _268  and  _269
REMARK   96  A    between atoms: _272  and  _274
REMARK   97  A    between atoms: _274  and  _275
REMARK   98  A    between atoms: _277  and  _279
REMARK   99  A    between atoms: _279  and  _280
REMARK  100  A    between atoms: _282  and  _284
REMARK  101  A    between atoms: _284  and  _285
REMARK  102  A    between atoms: _284  and  _287
REMARK  103  A    between atoms: _287  and  _288
REMARK  104  A    between atoms: _290  and  _292
REMARK  105  A    between atoms: _292  and  _293
REMARK  106  A    between atoms: _292  and  _295
REMARK  107  A    between atoms: _295  and  _296
REMARK  108  A    between atoms: _299  and  _301
REMARK  109  A    between atoms: _301  and  _302
REMARK  110  A    between atoms: _301  and  _304
REMARK  111  A    between atoms: _304  and  _305
REMARK  112  A    between atoms: _308  and  _310
REMARK  113  A    between atoms: _310  and  _311
REMARK  114  A    between atoms: _310  and  _313
REMARK  115  A    between atoms: _313  and  _314
REMARK  116  A    between atoms: _318  and  _319
REMARK  117  A    between atoms: _325  and  _326
REMARK  118  A    between atoms: _331  and  _333
REMARK  119  A    between atoms: _333  and  _334
REMARK  120  A    between atoms: _333  and  _336
REMARK  121  A    between atoms: _336  and  _337
REMARK  122  A    between atoms: _340  and  _342
REMARK  123  A    between atoms: _342  and  _343
REMARK  124  A    between atoms: _342  and  _345
REMARK  125  A    between atoms: _345  and  _346
REMARK  126  A    between atoms: _349  and  _351
REMARK  127  A    between atoms: _351  and  _352
REMARK  128  A    between atoms: _351  and  _354
REMARK  129  A    between atoms: _356  and  _358
REMARK  130  A    between atoms: _358  and  _359
REMARK  131  A    between atoms: _358  and  _361
REMARK  132  A    between atoms: _364  and  _366
REMARK  133  A    between atoms: _366  and  _367
REMARK  134  A    between atoms: _366  and  _369
REMARK  135  A    between atoms: _369  and  _370
REMARK  136  A    between atoms: _373  and  _375
REMARK  137  A    between atoms: _375  and  _376
REMARK  138  A    between atoms: _375  and  _378
REMARK  139  A    between atoms: _378  and  _379
REMARK  140  A    between atoms: _389  and  _391
REMARK  141  A    between atoms: _391  and  _392
REMARK  142  A    between atoms: _391  and  _394
REMARK  143  A    between atoms: _394  and  _395
REMARK  144  A    between atoms: _400  and  _402
REMARK  145  A    between atoms: _402  and  _403
REMARK  146  A    between atoms: _402  and  _405
REMARK  147  A    between atoms: _405  and  _406
REMARK  148  A    between atoms: _406  and  _407
REMARK  149  A    between atoms: _407  and  _408
REMARK                            x       y       z     vdW  Elec       q    Type
REMARK                         _______ _______ _______ _____ _____    ______ ____
ROOT
ATOM      1  CA  THR A   5      21.307   1.767  16.148  0.00  0.00    +0.176 C 
ENDROOT
BRANCH   1   2
ATOM      2  C   THR A   5      22.167   2.997  16.473  0.00  0.00    +0.246 C 
ATOM      3  O   THR A   5      21.700   3.938  17.148  0.00  0.00    -0.273 OA
ATOM      4  N   PRO A   6      23.439   3.011  15.994  0.00  0.00    -0.272 N 
ATOM      5  CA  PRO A   6      24.193   4.235  16.107  0.00  0.00    +0.152 C 
ATOM      6  CB  PRO A   6      25.409   3.939  15.246  0.00  0.00    +0.031 C 
ATOM      7  CG  PRO A   6      25.686   2.486  15.569  0.00  0.00    +0.024 C 
ATOM      8  CD  PRO A   6      24.263   1.932  15.429  0.00  0.00    +0.094 C 
BRANCH   5   9
ATOM      9  C   PRO A   6      23.400   5.365  15.561  0.00  0.00    +0.244 C 
ATOM     10  N   PRO A   7      23.518   6.537  16.172  0.00  0.00    -0.272 N 
ATOM     11  CA  PRO A   7      24.353   6.985  17.268  0.00  0.00    +0.152 C 
ATOM     12  CB  PRO A   7      24.343   8.524  17.060  0.00  0.00    +0.031 C 
ATOM     13  CG  PRO A   7      23.046   8.774  16.530  0.00  0.00    +0.024 C 
ATOM     14  CD  PRO A   7      22.711   7.649  15.636  0.00  0.00    +0.094 C 
ATOM     15  O   PRO A   6      22.661   5.186  14.541  0.00  0.00    -0.273 OA
BRANCH  11  16
ATOM     16  C   PRO A   7      23.940   6.548  18.726  0.00  0.00    +0.241 C 
ATOM     17  O   PRO A   7      24.589   6.998  19.669  0.00  0.00    -0.273 OA
ATOM     18  N   LEU A   8      22.919   5.654  18.901  0.00  0.00    -0.297 N 
ATOM     19  H   LEU A   8      22.356   5.359  18.078  0.00  0.00    +0.150 HD
BRANCH  18  20
ATOM     20  CA  LEU A   8      22.598   5.100  20.223  0.00  0.00    +0.149 C 
BRANCH  20  21
ATOM     21  C   LEU A   8      22.309   6.162  21.323  0.00  0.00    +0.241 C 
ATOM     22  O   LEU A   8      22.535   5.912  22.539  0.00  0.00    -0.273 OA
ATOM     23  N   LEU A   9      21.826   7.320  20.904  0.00  0.00    -0.298 N 
ATOM     24  H   LEU A   9      21.705   7.470  19.882  0.00  0.00    +0.150 HD
BRANCH  23  25
ATOM     25  CA  LEU A   9      21.449   8.416  21.836  0.00  0.00    +0.137 C 
BRANCH  25  26
ATOM     26  C   LEU A   9      20.429   7.937  22.857  0.00  0.00    +0.227 C 
ATOM     27  O   LEU A   9      19.485   7.224  22.474  0.00  0.00    -0.286 OA
ENDBRANCH  25  26
BRANCH  25  28
ATOM     28  CB  LEU A   9      20.845   9.599  21.011  0.00  0.00    +0.028 C 
BRANCH  28  29
ATOM     29  CG  LEU A   9      21.892   9.985  19.944  0.00  0.00    +0.002 C 
ATOM     30  CD2 LEU A   9      23.179  10.540  20.653  0.00  0.00    +0.000 C 
ATOM     31  CD1 LEU A   9      21.382  11.026  18.998  0.00  0.00    +0.000 C 
ENDBRANCH  28  29
ENDBRANCH  25  28
ENDBRANCH  23  25
ENDBRANCH  20  21
BRANCH  20  32
ATOM     32  CB  LEU A   8      23.751   4.166  20.708  0.00  0.00    +0.029 C 
BRANCH  32  33
ATOM     33  CG  LEU A   8      24.104   3.027  19.732  0.00  0.00    +0.002 C 
ATOM     34  CD2 LEU A   8      25.474   2.372  20.079  0.00  0.00    +0.000 C 
ATOM     35  CD1 LEU A   8      22.994   1.963  19.583  0.00  0.00    +0.000 C 
ENDBRANCH  32  33
ENDBRANCH  20  32
ENDBRANCH  18  20
ENDBRANCH  11  16
ENDBRANCH   5   9
ENDBRANCH   1   2
BRANCH   1  38
ATOM     36  C   THR A   4      20.108   0.616  17.944  0.00  0.00    +0.243 C 
ATOM     37  O   THR A   4      20.724  -0.420  17.744  0.00  0.00    -0.273 OA
ATOM     38  N   THR A   5      20.223   1.698  17.137  0.00  0.00    -0.295 N 
ATOM     39  H   THR A   5      19.543   2.481  17.218  0.00  0.00    +0.150 HD
BRANCH  36  40
ATOM     40  CA  THR A   4      19.189   0.689  19.150  0.00  0.00    +0.176 C 
BRANCH  40  43
ATOM     41  C   LEU A   3      18.914   2.952  19.908  0.00  0.00    +0.241 C 
ATOM     42  O   LEU A   3      19.909   2.806  20.697  0.00  0.00    -0.273 OA
ATOM     43  N   THR A   4      18.499   1.965  19.106  0.00  0.00    -0.295 N 
ATOM     44  H   THR A   4      17.695   2.110  18.462  0.00  0.00    +0.150 HD
BRANCH  41  45
ATOM     45  CA  LEU A   3      18.183   4.298  19.774  0.00  0.00    +0.149 C 
BRANCH  45  48
ATOM     46  C   SER A   2      17.639   4.194  22.106  0.00  0.00    +0.243 C 
ATOM     47  O   SER A   2      16.889   3.253  21.909  0.00  0.00    -0.273 OA
ATOM     48  N   LEU A   3      18.106   4.931  21.089  0.00  0.00    -0.297 N 
ATOM     49  H   LEU A   3      18.403   5.918  21.230  0.00  0.00    +0.150 HD
BRANCH  46  50
ATOM     50  CA  SER A   2      18.031   4.582  23.532  0.00  0.00    +0.178 C 
BRANCH  50  53
ATOM     51  C   GLY A   1      16.868   4.570  25.668  0.00  0.00    +0.240 C 
ATOM     52  O   GLY A   1      17.003   5.771  25.872  0.00  0.00    -0.274 OA
ATOM     53  N   SER A   2      17.236   3.940  24.574  0.00  0.00    -0.295 N 
ATOM     54  H   SER A   2      16.950   2.948  24.447  0.00  0.00    +0.150 HD
BRANCH  51  55
ATOM     55  CA  GLY A   1      16.275   3.715  26.719  0.00  0.00    +0.169 C 
BRANCH  55  56
ATOM     56  N   GLY A   1      15.172   4.405  27.449  0.00  0.00    -0.236 NA
ATOM     57  H   GLY A   1      14.599   5.136  26.981  0.00  0.00    +0.142 HD
ENDBRANCH  55  56
ENDBRANCH  51  55
ENDBRANCH  50  53
BRANCH  50  58
ATOM     58  CB  SER A   2      19.549   4.161  23.763  0.00  0.00    +0.166 C 
BRANCH  58  59
ATOM     59  OG  SER A   2      19.763   2.799  23.300  0.00  0.00    -0.380 OA
ATOM     60  H   SER A   2      19.552   2.743  22.334  0.00  0.00    +0.211 HD
ENDBRANCH  58  59
ENDBRANCH  50  58
ENDBRANCH  46  50
ENDBRANCH  45  48
BRANCH  45  61
ATOM     61  CB  LEU A   3      18.992   5.187  18.844  0.00  0.00    +0.029 C 
BRANCH  61  62
ATOM     62  CG  LEU A   3      18.355   6.417  18.170  0.00  0.00    +0.002 C 
ATOM     63  CD2 LEU A   3      17.398   7.235  19.035  0.00  0.00    +0.000 C 
ATOM     64  CD1 LEU A   3      19.455   7.287  17.646  0.00  0.00    +0.000 C 
ENDBRANCH  61  62
ENDBRANCH  45  61
ENDBRANCH  41  45
ENDBRANCH  40  43
BRANCH  40  65
ATOM     65  CB  THR A   4      18.205  -0.468  19.002  0.00  0.00    +0.137 C 
ATOM     66  CG2 THR A   4      17.091  -0.468  20.147  0.00  0.00    +0.034 C 
BRANCH  65  67
ATOM     67  OG1 THR A   4      17.608  -0.296  17.723  0.00  0.00    -0.382 OA
ATOM     68  HG1 THR A   4      16.954  -1.022  17.565  0.00  0.00    +0.210 HD
ENDBRANCH  65  67
ENDBRANCH  40  65
ENDBRANCH  36  40
ENDBRANCH   1  38
BRANCH   1  69
ATOM     69  CB  THR A   5      20.709   1.915  14.720  0.00  0.00    +0.137 C 
ATOM     70  CG2 THR A   5      19.765   0.700  14.487  0.00  0.00    +0.034 C 
BRANCH  69  71
ATOM     71  OG1 THR A   5      19.933   3.141  14.701  0.00  0.00    -0.382 OA
ATOM     72  HG1 THR A   5      20.523   3.907  14.912  0.00  0.00    +0.210 HD
ENDBRANCH  69  71
ENDBRANCH   1  69
TORSDOF 28
REMARK  Name = ../refined-set-2016/2weh/2weh_pocket.pdb
REMARK  149 active torsions:
REMARK  status: ('A' for Active; 'I' for Inactive)
REMARK    1  A    between atoms: _1  and  _3
REMARK    2  A    between atoms: _3  and  _4
REMARK    3  A    between atoms: _3  and  _6
REMARK    4  A    between atoms: _6  and  _7
REMARK    5  A    between atoms: _17  and  _19
REMARK    6  A    between atoms: _19  and  _20
REMARK    7  A    between atoms: _19  and  _22
REMARK    8  A    between atoms: _22  and  _23
REMARK    9  A    between atoms: _28  and  _29
REMARK   10  A    between atoms: _31  and  _33
REMARK   11  A    between atoms: _33  and  _34
REMARK   12  A    between atoms: _33  and  _36
REMARK   13  A    between atoms: _36  and  _37
REMARK   14  A    between atoms: _40  and  _41
REMARK   15  A    between atoms: _46  and  _48
REMARK   16  A    between atoms: _48  and  _49
REMARK   17  A    between atoms: _48  and  _51
REMARK   18  A    between atoms: _51  and  _52
REMARK   19  A    between atoms: _57  and  _59
REMARK   20  A    between atoms: _59  and  _60
REMARK   21  A    between atoms: _63  and  _65
REMARK   22  A    between atoms: _65  and  _66
REMARK   23  A    between atoms: _65  and  _68
REMARK   24  A    between atoms: _68  and  _69
REMARK   25  A    between atoms: _74  and  _76
REMARK   26  A    between atoms: _76  and  _77
REMARK   27  A    between atoms: _76  and  _79
REMARK   28  A    between atoms: _79  and  _80
REMARK   29  A    between atoms: _83  and  _85
REMARK   30  A    between atoms: _85  and  _86
REMARK   31  A    between atoms: _85  and  _88
REMARK   32  A    between atoms: _88  and  _89
REMARK   33  A    between atoms: _89  and  _90
REMARK   34  A    between atoms: _95  and  _97
REMARK   35  A    between atoms: _97  and  _98
REMARK   36  A    between atoms: _97  and  _100
REMARK   37  A    between atoms: _100  and  _101
REMARK   38  A    between atoms: _107  and  _109
REMARK   39  A    between atoms: _120  and  _123
REMARK   40  A    between atoms: _123  and  _124
REMARK   41  A    between atoms: _132  and  _133
REMARK   42  A    between atoms: _141  and  _143
REMARK   43  A    between atoms: _143  and  _144
REMARK   44  A    between atoms: _143  and  _146
REMARK   45  A    between atoms: _146  and  _147
REMARK   46  A    between atoms: _147  and  _148
REMARK   47  A    between atoms: _151  and  _153
REMARK   48  A    between atoms: _153  and  _154
REMARK   49  A    between atoms: _153  and  _156
REMARK   50  A    between atoms: _156  and  _157
REMARK   51  A    between atoms: _162  and  _164
REMARK   52  A    between atoms: _164  and  _165
REMARK   53  A    between atoms: _164  and  _167
REMARK   54  A    between atoms: _167  and  _168
REMARK   55  A    between atoms: _168  and  _169
REMARK   56  A    between atoms: _172  and  _174
REMARK   57  A    between atoms: _174  and  _175
REMARK   58  A    between atoms: _174  and  _177
REMARK   59  A    between atoms: _177  and  _178
REMARK   60  A    between atoms: _181  and  _183
REMARK   61  A    between atoms: _183  and  _184
REMARK   62  A    between atoms: _183  and  _186
REMARK   63  A    between atoms: _186  and  _187
REMARK   64  A    between atoms: _188  and  ZN_417
REMARK   65  A    between atoms: _192  and  _194
REMARK   66  A    between atoms: _194  and  _195
REMARK   67  A    between atoms: _194  and  _197
REMARK   68  A    between atoms: _197  and  _198
REMARK   69  A    between atoms: _201  and  _203
REMARK   70  A    between atoms: _203  and  _204
REMARK   71  A    between atoms: _203  and  _206
REMARK   72  A    between atoms: _209  and  _211
REMARK   73  A    between atoms: _211  and  _212
REMARK   74  A    between atoms: _211  and  _214
REMARK   75  A    between atoms: _214  and  _215
REMARK   76  A    between atoms: _220  and  _222
REMARK   77  A    between atoms: _222  and  _223
REMARK   78  A    between atoms: _222  and  _225
REMARK   79  A    between atoms: _225  and  _226
REMARK   80  A    between atoms: _232  and  _234
REMARK   81  A    between atoms: _234  and  _235
REMARK   82  A    between atoms: _234  and  _237
REMARK   83  A    between atoms: _240  and  _242
REMARK   84  A    between atoms: _242  and  _243
REMARK   85  A    between atoms: _242  and  _245
REMARK   86  A    between atoms: _245  and  _246
REMARK   87  A    between atoms: _249  and  _251
REMARK   88  A    between atoms: _251  and  _252
REMARK   89  A    between atoms: _255  and  _257
REMARK   90  A    between atoms: _257  and  _258
REMARK   91  A    between atoms: _257  and  _260
REMARK   92  A    between atoms: _263  and  _265
REMARK   93  A    between atoms: _265  and  _266
REMARK   94  A    between atoms: _265  and  _268
REMARK   95  A    between atoms: _268  and  _269
REMARK   96  A    between atoms: _272  and  _274
REMARK   97  A    between atoms: _274  and  _275
REMARK   98  A    between atoms: _277  and  _279
REMARK   99  A    between atoms: _279  and  _280
REMARK  100  A    between atoms: _282  and  _284
REMARK  101  A    between atoms: _284  and  _285
REMARK  102  A    between atoms: _284  and  _287
REMARK  103  A    between atoms: _287  and  _288
REMARK  104  A    between atoms: _290  and  _292
REMARK  105  A    between atoms: _292  and  _293
REMARK  106  A    between atoms: _292  and  _295
REMARK  107  A    between atoms: _295  and  _296
REMARK  108  A    between atoms: _299  and  _301
REMARK  109  A    between atoms: _301  and  _302
REMARK  110  A    between atoms: _301  and  _304
REMARK  111  A    between atoms: _304  and  _305
REMARK  112  A    between atoms: _308  and  _310
REMARK  113  A    between atoms: _310  and  _311
REMARK  114  A    between atoms: _310  and  _313
REMARK  115  A    between atoms: _313  and  _314
REMARK  116  A    between atoms: _318  and  _319
REMARK  117  A    between atoms: _325  and  _326
REMARK  118  A    between atoms: _331  and  _333
REMARK  119  A    between atoms: _333  and  _334
REMARK  120  A    between atoms: _333  and  _336
REMARK  121  A    between atoms: _336  and  _337
REMARK  122  A    between atoms: _340  and  _342
REMARK  123  A    between atoms: _342  and  _343
REMARK  124  A    between atoms: _342  and  _345
REMARK  125  A    between atoms: _345  and  _346
REMARK  126  A    between atoms: _349  and  _351
REMARK  127  A    between atoms: _351  and  _352
REMARK  128  A    between atoms: _351  and  _354
REMARK  129  A    between atoms: _356  and  _358
REMARK  130  A    between atoms: _358  and  _359
REMARK  131  A    between atoms: _358  and  _361
REMARK  132  A    between atoms: _364  and  _366
REMARK  133  A    between atoms: _366  and  _367
REMARK  134  A    between atoms: _366  and  _369
REMARK  135  A    between atoms: _369  and  _370
REMARK  136  A    between atoms: _373  and  _375
REMARK  137  A    between atoms: _375  and  _376
REMARK  138  A    between atoms: _375  and  _378
REMARK  139  A    between atoms: _378  and  _379
REMARK  140  A    between atoms: _389  and  _391
REMARK  141  A    between atoms: _391  and  _392
REMARK  142  A    between atoms: _391  and  _394
REMARK  143  A    between atoms: _394  and  _395
REMARK  144  A    between atoms: _400  and  _402
REMARK  145  A    between atoms: _402  and  _403
REMARK  146  A    between atoms: _402  and  _405
REMARK  147  A    between atoms: _405  and  _406
REMARK  148  A    between atoms: _406  and  _407
REMARK  149  A    between atoms: _407  and  _408
REMARK                            x       y       z     vdW  Elec       q    Type
REMARK                         _______ _______ _______ _____ _____    ______ ____
ROOT
ATOM      1  CA  THR A   3      10.865   6.298  26.106  0.00  0.00    +0.176 C 
ENDROOT
BRANCH   1   4
ATOM      2  C   VAL A   2      13.105   6.761  25.223  0.00  0.00    +0.241 C 
ATOM      3  O   VAL A   2      13.697   6.087  26.131  0.00  0.00    -0.273 OA
ATOM      4  N   THR A   3      11.793   6.976  25.195  0.00  0.00    -0.295 N 
ATOM      5  H   THR A   3      11.411   7.650  24.501  0.00  0.00    +0.150 HD
BRANCH   2   6
ATOM      6  CA  VAL A   2      13.849   7.272  24.009  0.00  0.00    +0.148 C 
BRANCH   6   8
ATOM      7  C   CYS A   1      15.222   9.247  24.008  0.00  0.00    +0.239 C 
ATOM      8  N   VAL A   2      15.093   7.954  24.318  0.00  0.00    -0.297 N 
ATOM      9  H   VAL A   2      15.874   7.442  24.775  0.00  0.00    +0.150 HD
ATOM     10  O   CYS A   1      14.283   9.909  23.639  0.00  0.00    -0.274 OA
BRANCH   7  11
ATOM     11  CA  CYS A   1      16.617   9.861  24.144  0.00  0.00    +0.156 C 
BRANCH  11  12
ATOM     12  N   CYS A   1      17.640   8.817  24.324  0.00  0.00    -0.237 NA
ATOM     13  H   CYS A   1      17.673   8.026  23.650  0.00  0.00    +0.142 HD
ENDBRANCH  11  12
BRANCH  11  14
ATOM     14  CB  CYS A   1      16.978  10.688  22.909  0.00  0.00    +0.095 C 
ATOM     15  SG  CYS A   1      16.936   9.784  21.324  0.00  0.00    -0.080 S 
ENDBRANCH  11  14
ENDBRANCH   7  11
ENDBRANCH   6   8
BRANCH   6  16
ATOM     16  CB  VAL A   2      14.092   6.021  23.170  0.00  0.00    +0.027 C 
ATOM     17  CG2 VAL A   2      12.730   5.370  22.833  0.00  0.00    +0.002 C 
ATOM     18  CG1 VAL A   2      14.916   6.364  21.885  0.00  0.00    +0.002 C 
ENDBRANCH   6  16
ENDBRANCH   2   6
ENDBRANCH   1   4
BRANCH   1  19
ATOM     19  C   THR A   3      10.365   5.098  25.319  0.00  0.00    +0.243 C 
ATOM     20  N   TRP A   4      10.666   3.894  25.773  0.00  0.00    -0.298 N 
ATOM     21  H   TRP A   4      11.157   3.770  26.681  0.00  0.00    +0.150 HD
ATOM     22  O   THR A   3       9.722   5.258  24.303  0.00  0.00    -0.273 OA
BRANCH  20  23
ATOM     23  CA  TRP A   4      10.292   2.760  24.970  0.00  0.00    +0.141 C 
BRANCH  23  24
ATOM     24  C   TRP A   4       8.964   2.280  25.415  0.00  0.00    +0.227 C 
ATOM     25  O   TRP A   4       8.659   2.291  26.595  0.00  0.00    -0.286 OA
ENDBRANCH  23  24
BRANCH  23  26
ATOM     26  CB  TRP A   4      11.355   1.636  25.103  0.00  0.00    +0.056 C 
BRANCH  26  27
ATOM     27  CG  TRP A   4      12.383   1.794  24.096  0.00  0.00    -0.002 A 
ATOM     28  CD1 TRP A   4      13.589   2.350  24.245  0.00  0.00    +0.068 A 
ATOM     29  NE1 TRP A   4      14.272   2.329  23.014  0.00  0.00    -0.352 N 
ATOM     30  HE1 TRP A   4      15.207   2.747  22.834  0.00  0.00    +0.166 HD
ATOM     31  CE2 TRP A   4      13.501   1.665  22.088  0.00  0.00    +0.056 A 
ATOM     32  CZ2 TRP A   4      13.768   1.363  20.763  0.00  0.00    +0.017 A 
ATOM     33  CH2 TRP A   4      12.758   0.729  20.055  0.00  0.00    +0.001 A 
ATOM     34  CZ3 TRP A   4      11.532   0.384  20.658  0.00  0.00    +0.000 A 
ATOM     35  CE3 TRP A   4      11.293   0.678  21.966  0.00  0.00    +0.001 A 
ATOM     36  CD2 TRP A   4      12.293   1.341  22.705  0.00  0.00    +0.013 A 
ENDBRANCH  26  27
ENDBRANCH  23  26
ENDBRANCH  20  23
ENDBRANCH   1  19
BRANCH   1  37
ATOM     37  CB  THR A   3       9.702   7.243  26.479  0.00  0.00    +0.137 C 
ATOM     38  CG2 THR A   3       8.538   6.478  27.273  0.00  0.00    +0.034 C 
BRANCH  37  39
ATOM     39  OG1 THR A   3      10.262   8.335  27.216  0.00  0.00    -0.382 OA
ATOM     40  HG1 THR A   3      10.926   8.806  26.653  0.00  0.00    +0.210 HD
ENDBRANCH  37  39
ENDBRANCH   1  37
TORSDOF 14
REMARK  Name = ../refined-set-2016/2weh/2weh_pocket.pdb
REMARK  149 active torsions:
REMARK  status: ('A' for Active; 'I' for Inactive)
REMARK    1  A    between atoms: _1  and  _3
REMARK    2  A    between atoms: _3  and  _4
REMARK    3  A    between atoms: _3  and  _6
REMARK    4  A    between atoms: _6  and  _7
REMARK    5  A    between atoms: _17  and  _19
REMARK    6  A    between atoms: _19  and  _20
REMARK    7  A    between atoms: _19  and  _22
REMARK    8  A    between atoms: _22  and  _23
REMARK    9  A    between atoms: _28  and  _29
REMARK   10  A    between atoms: _31  and  _33
REMARK   11  A    between atoms: _33  and  _34
REMARK   12  A    between atoms: _33  and  _36
REMARK   13  A    between atoms: _36  and  _37
REMARK   14  A    between atoms: _40  and  _41
REMARK   15  A    between atoms: _46  and  _48
REMARK   16  A    between atoms: _48  and  _49
REMARK   17  A    between atoms: _48  and  _51
REMARK   18  A    between atoms: _51  and  _52
REMARK   19  A    between atoms: _57  and  _59
REMARK   20  A    between atoms: _59  and  _60
REMARK   21  A    between atoms: _63  and  _65
REMARK   22  A    between atoms: _65  and  _66
REMARK   23  A    between atoms: _65  and  _68
REMARK   24  A    between atoms: _68  and  _69
REMARK   25  A    between atoms: _74  and  _76
REMARK   26  A    between atoms: _76  and  _77
REMARK   27  A    between atoms: _76  and  _79
REMARK   28  A    between atoms: _79  and  _80
REMARK   29  A    between atoms: _83  and  _85
REMARK   30  A    between atoms: _85  and  _86
REMARK   31  A    between atoms: _85  and  _88
REMARK   32  A    between atoms: _88  and  _89
REMARK   33  A    between atoms: _89  and  _90
REMARK   34  A    between atoms: _95  and  _97
REMARK   35  A    between atoms: _97  and  _98
REMARK   36  A    between atoms: _97  and  _100
REMARK   37  A    between atoms: _100  and  _101
REMARK   38  A    between atoms: _107  and  _109
REMARK   39  A    between atoms: _120  and  _123
REMARK   40  A    between atoms: _123  and  _124
REMARK   41  A    between atoms: _132  and  _133
REMARK   42  A    between atoms: _141  and  _143
REMARK   43  A    between atoms: _143  and  _144
REMARK   44  A    between atoms: _143  and  _146
REMARK   45  A    between atoms: _146  and  _147
REMARK   46  A    between atoms: _147  and  _148
REMARK   47  A    between atoms: _151  and  _153
REMARK   48  A    between atoms: _153  and  _154
REMARK   49  A    between atoms: _153  and  _156
REMARK   50  A    between atoms: _156  and  _157
REMARK   51  A    between atoms: _162  and  _164
REMARK   52  A    between atoms: _164  and  _165
REMARK   53  A    between atoms: _164  and  _167
REMARK   54  A    between atoms: _167  and  _168
REMARK   55  A    between atoms: _168  and  _169
REMARK   56  A    between atoms: _172  and  _174
REMARK   57  A    between atoms: _174  and  _175
REMARK   58  A    between atoms: _174  and  _177
REMARK   59  A    between atoms: _177  and  _178
REMARK   60  A    between atoms: _181  and  _183
REMARK   61  A    between atoms: _183  and  _184
REMARK   62  A    between atoms: _183  and  _186
REMARK   63  A    between atoms: _186  and  _187
REMARK   64  A    between atoms: _188  and  ZN_417
REMARK   65  A    between atoms: _192  and  _194
REMARK   66  A    between atoms: _194  and  _195
REMARK   67  A    between atoms: _194  and  _197
REMARK   68  A    between atoms: _197  and  _198
REMARK   69  A    between atoms: _201  and  _203
REMARK   70  A    between atoms: _203  and  _204
REMARK   71  A    between atoms: _203  and  _206
REMARK   72  A    between atoms: _209  and  _211
REMARK   73  A    between atoms: _211  and  _212
REMARK   74  A    between atoms: _211  and  _214
REMARK   75  A    between atoms: _214  and  _215
REMARK   76  A    between atoms: _220  and  _222
REMARK   77  A    between atoms: _222  and  _223
REMARK   78  A    between atoms: _222  and  _225
REMARK   79  A    between atoms: _225  and  _226
REMARK   80  A    between atoms: _232  and  _234
REMARK   81  A    between atoms: _234  and  _235
REMARK   82  A    between atoms: _234  and  _237
REMARK   83  A    between atoms: _240  and  _242
REMARK   84  A    between atoms: _242  and  _243
REMARK   85  A    between atoms: _242  and  _245
REMARK   86  A    between atoms: _245  and  _246
REMARK   87  A    between atoms: _249  and  _251
REMARK   88  A    between atoms: _251  and  _252
REMARK   89  A    between atoms: _255  and  _257
REMARK   90  A    between atoms: _257  and  _258
REMARK   91  A    between atoms: _257  and  _260
REMARK   92  A    between atoms: _263  and  _265
REMARK   93  A    between atoms: _265  and  _266
REMARK   94  A    between atoms: _265  and  _268
REMARK   95  A    between atoms: _268  and  _269
REMARK   96  A    between atoms: _272  and  _274
REMARK   97  A    between atoms: _274  and  _275
REMARK   98  A    between atoms: _277  and  _279
REMARK   99  A    between atoms: _279  and  _280
REMARK  100  A    between atoms: _282  and  _284
REMARK  101  A    between atoms: _284  and  _285
REMARK  102  A    between atoms: _284  and  _287
REMARK  103  A    between atoms: _287  and  _288
REMARK  104  A    between atoms: _290  and  _292
REMARK  105  A    between atoms: _292  and  _293
REMARK  106  A    between atoms: _292  and  _295
REMARK  107  A    between atoms: _295  and  _296
REMARK  108  A    between atoms: _299  and  _301
REMARK  109  A    between atoms: _301  and  _302
REMARK  110  A    between atoms: _301  and  _304
REMARK  111  A    between atoms: _304  and  _305
REMARK  112  A    between atoms: _308  and  _310
REMARK  113  A    between atoms: _310  and  _311
REMARK  114  A    between atoms: _310  and  _313
REMARK  115  A    between atoms: _313  and  _314
REMARK  116  A    between atoms: _318  and  _319
REMARK  117  A    between atoms: _325  and  _326
REMARK  118  A    between atoms: _331  and  _333
REMARK  119  A    between atoms: _333  and  _334
REMARK  120  A    between atoms: _333  and  _336
REMARK  121  A    between atoms: _336  and  _337
REMARK  122  A    between atoms: _340  and  _342
REMARK  123  A    between atoms: _342  and  _343
REMARK  124  A    between atoms: _342  and  _345
REMARK  125  A    between atoms: _345  and  _346
REMARK  126  A    between atoms: _349  and  _351
REMARK  127  A    between atoms: _351  and  _352
REMARK  128  A    between atoms: _351  and  _354
REMARK  129  A    between atoms: _356  and  _358
REMARK  130  A    between atoms: _358  and  _359
REMARK  131  A    between atoms: _358  and  _361
REMARK  132  A    between atoms: _364  and  _366
REMARK  133  A    between atoms: _366  and  _367
REMARK  134  A    between atoms: _366  and  _369
REMARK  135  A    between atoms: _369  and  _370
REMARK  136  A    between atoms: _373  and  _375
REMARK  137  A    between atoms: _375  and  _376
REMARK  138  A    between atoms: _375  and  _378
REMARK  139  A    between atoms: _378  and  _379
REMARK  140  A    between atoms: _389  and  _391
REMARK  141  A    between atoms: _391  and  _392
REMARK  142  A    between atoms: _391  and  _394
REMARK  143  A    between atoms: _394  and  _395
REMARK  144  A    between atoms: _400  and  _402
REMARK  145  A    between atoms: _402  and  _403
REMARK  146  A    between atoms: _402  and  _405
REMARK  147  A    between atoms: _405  and  _406
REMARK  148  A    between atoms: _406  and  _407
REMARK  149  A    between atoms: _407  and  _408
REMARK                            x       y       z     vdW  Elec       q    Type
REMARK                         _______ _______ _______ _____ _____    ______ ____
ROOT
ATOM      1  CB  ASN A   1      19.188  -5.484  10.412  0.00  0.00    +0.110 C 
ENDROOT
BRANCH   1   2
ATOM      2  CG  ASN A   1      17.726  -5.663  10.130  0.00  0.00    +0.221 C 
ATOM      3  OD1 ASN A   1      17.042  -6.578  10.665  0.00  0.00    -0.275 OA
ATOM      4  ND2 ASN A   1      17.218  -4.834   9.243  0.00  0.00    -0.329 N 
ATOM      5 HD21 ASN A   1      16.221  -4.921   8.961  0.00  0.00    +0.145 HD
ATOM      6 HD22 ASN A   1      17.814  -4.092   8.824  0.00  0.00    +0.145 HD
ENDBRANCH   1   2
BRANCH   1   7
ATOM      7  CA  ASN A   1      19.696  -6.406  11.533  0.00  0.00    +0.142 C 
BRANCH   7   8
ATOM      8  N   ASN A   1      19.330  -7.785  11.238  0.00  0.00    -0.239 NA
ATOM      9  H   ASN A   1      18.428  -7.996  10.766  0.00  0.00    +0.142 HD
ENDBRANCH   7   8
BRANCH   7  10
ATOM     10  C   ASN A   1      19.121  -5.977  12.949  0.00  0.00    +0.225 C 
ATOM     11  O   ASN A   1      18.377  -4.974  13.077  0.00  0.00    -0.287 OA
ENDBRANCH   7  10
ENDBRANCH   1   7
TORSDOF 4
REMARK  Name = ../refined-set-2016/2weh/2weh_pocket.pdb
REMARK  149 active torsions:
REMARK  status: ('A' for Active; 'I' for Inactive)
REMARK    1  A    between atoms: _1  and  _3
REMARK    2  A    between atoms: _3  and  _4
REMARK    3  A    between atoms: _3  and  _6
REMARK    4  A    between atoms: _6  and  _7
REMARK    5  A    between atoms: _17  and  _19
REMARK    6  A    between atoms: _19  and  _20
REMARK    7  A    between atoms: _19  and  _22
REMARK    8  A    between atoms: _22  and  _23
REMARK    9  A    between atoms: _28  and  _29
REMARK   10  A    between atoms: _31  and  _33
REMARK   11  A    between atoms: _33  and  _34
REMARK   12  A    between atoms: _33  and  _36
REMARK   13  A    between atoms: _36  and  _37
REMARK   14  A    between atoms: _40  and  _41
REMARK   15  A    between atoms: _46  and  _48
REMARK   16  A    between atoms: _48  and  _49
REMARK   17  A    between atoms: _48  and  _51
REMARK   18  A    between atoms: _51  and  _52
REMARK   19  A    between atoms: _57  and  _59
REMARK   20  A    between atoms: _59  and  _60
REMARK   21  A    between atoms: _63  and  _65
REMARK   22  A    between atoms: _65  and  _66
REMARK   23  A    between atoms: _65  and  _68
REMARK   24  A    between atoms: _68  and  _69
REMARK   25  A    between atoms: _74  and  _76
REMARK   26  A    between atoms: _76  and  _77
REMARK   27  A    between atoms: _76  and  _79
REMARK   28  A    between atoms: _79  and  _80
REMARK   29  A    between atoms: _83  and  _85
REMARK   30  A    between atoms: _85  and  _86
REMARK   31  A    between atoms: _85  and  _88
REMARK   32  A    between atoms: _88  and  _89
REMARK   33  A    between atoms: _89  and  _90
REMARK   34  A    between atoms: _95  and  _97
REMARK   35  A    between atoms: _97  and  _98
REMARK   36  A    between atoms: _97  and  _100
REMARK   37  A    between atoms: _100  and  _101
REMARK   38  A    between atoms: _107  and  _109
REMARK   39  A    between atoms: _120  and  _123
REMARK   40  A    between atoms: _123  and  _124
REMARK   41  A    between atoms: _132  and  _133
REMARK   42  A    between atoms: _141  and  _143
REMARK   43  A    between atoms: _143  and  _144
REMARK   44  A    between atoms: _143  and  _146
REMARK   45  A    between atoms: _146  and  _147
REMARK   46  A    between atoms: _147  and  _148
REMARK   47  A    between atoms: _151  and  _153
REMARK   48  A    between atoms: _153  and  _154
REMARK   49  A    between atoms: _153  and  _156
REMARK   50  A    between atoms: _156  and  _157
REMARK   51  A    between atoms: _162  and  _164
REMARK   52  A    between atoms: _164  and  _165
REMARK   53  A    between atoms: _164  and  _167
REMARK   54  A    between atoms: _167  and  _168
REMARK   55  A    between atoms: _168  and  _169
REMARK   56  A    between atoms: _172  and  _174
REMARK   57  A    between atoms: _174  and  _175
REMARK   58  A    between atoms: _174  and  _177
REMARK   59  A    between atoms: _177  and  _178
REMARK   60  A    between atoms: _181  and  _183
REMARK   61  A    between atoms: _183  and  _184
REMARK   62  A    between atoms: _183  and  _186
REMARK   63  A    between atoms: _186  and  _187
REMARK   64  A    between atoms: _188  and  ZN_417
REMARK   65  A    between atoms: _192  and  _194
REMARK   66  A    between atoms: _194  and  _195
REMARK   67  A    between atoms: _194  and  _197
REMARK   68  A    between atoms: _197  and  _198
REMARK   69  A    between atoms: _201  and  _203
REMARK   70  A    between atoms: _203  and  _204
REMARK   71  A    between atoms: _203  and  _206
REMARK   72  A    between atoms: _209  and  _211
REMARK   73  A    between atoms: _211  and  _212
REMARK   74  A    between atoms: _211  and  _214
REMARK   75  A    between atoms: _214  and  _215
REMARK   76  A    between atoms: _220  and  _222
REMARK   77  A    between atoms: _222  and  _223
REMARK   78  A    between atoms: _222  and  _225
REMARK   79  A    between atoms: _225  and  _226
REMARK   80  A    between atoms: _232  and  _234
REMARK   81  A    between atoms: _234  and  _235
REMARK   82  A    between atoms: _234  and  _237
REMARK   83  A    between atoms: _240  and  _242
REMARK   84  A    between atoms: _242  and  _243
REMARK   85  A    between atoms: _242  and  _245
REMARK   86  A    between atoms: _245  and  _246
REMARK   87  A    between atoms: _249  and  _251
REMARK   88  A    between atoms: _251  and  _252
REMARK   89  A    between atoms: _255  and  _257
REMARK   90  A    between atoms: _257  and  _258
REMARK   91  A    between atoms: _257  and  _260
REMARK   92  A    between atoms: _263  and  _265
REMARK   93  A    between atoms: _265  and  _266
REMARK   94  A    between atoms: _265  and  _268
REMARK   95  A    between atoms: _268  and  _269
REMARK   96  A    between atoms: _272  and  _274
REMARK   97  A    between atoms: _274  and  _275
REMARK   98  A    between atoms: _277  and  _279
REMARK   99  A    between atoms: _279  and  _280
REMARK  100  A    between atoms: _282  and  _284
REMARK  101  A    between atoms: _284  and  _285
REMARK  102  A    between atoms: _284  and  _287
REMARK  103  A    between atoms: _287  and  _288
REMARK  104  A    between atoms: _290  and  _292
REMARK  105  A    between atoms: _292  and  _293
REMARK  106  A    between atoms: _292  and  _295
REMARK  107  A    between atoms: _295  and  _296
REMARK  108  A    between atoms: _299  and  _301
REMARK  109  A    between atoms: _301  and  _302
REMARK  110  A    between atoms: _301  and  _304
REMARK  111  A    between atoms: _304  and  _305
REMARK  112  A    between atoms: _308  and  _310
REMARK  113  A    between atoms: _310  and  _311
REMARK  114  A    between atoms: _310  and  _313
REMARK  115  A    between atoms: _313  and  _314
REMARK  116  A    between atoms: _318  and  _319
REMARK  117  A    between atoms: _325  and  _326
REMARK  118  A    between atoms: _331  and  _333
REMARK  119  A    between atoms: _333  and  _334
REMARK  120  A    between atoms: _333  and  _336
REMARK  121  A    between atoms: _336  and  _337
REMARK  122  A    between atoms: _340  and  _342
REMARK  123  A    between atoms: _342  and  _343
REMARK  124  A    between atoms: _342  and  _345
REMARK  125  A    between atoms: _345  and  _346
REMARK  126  A    between atoms: _349  and  _351
REMARK  127  A    between atoms: _351  and  _352
REMARK  128  A    between atoms: _351  and  _354
REMARK  129  A    between atoms: _356  and  _358
REMARK  130  A    between atoms: _358  and  _359
REMARK  131  A    between atoms: _358  and  _361
REMARK  132  A    between atoms: _364  and  _366
REMARK  133  A    between atoms: _366  and  _367
REMARK  134  A    between atoms: _366  and  _369
REMARK  135  A    between atoms: _369  and  _370
REMARK  136  A    between atoms: _373  and  _375
REMARK  137  A    between atoms: _375  and  _376
REMARK  138  A    between atoms: _375  and  _378
REMARK  139  A    between atoms: _378  and  _379
REMARK  140  A    between atoms: _389  and  _391
REMARK  141  A    between atoms: _391  and  _392
REMARK  142  A    between atoms: _391  and  _394
REMARK  143  A    between atoms: _394  and  _395
REMARK  144  A    between atoms: _400  and  _402
REMARK  145  A    between atoms: _402  and  _403
REMARK  146  A    between atoms: _402  and  _405
REMARK  147  A    between atoms: _405  and  _406
REMARK  148  A    between atoms: _406  and  _407
REMARK  149  A    between atoms: _407  and  _408
REMARK                            x       y       z     vdW  Elec       q    Type
REMARK                         _______ _______ _______ _____ _____    ______ ____
ROOT
ATOM      1  NE  ARG A   1      23.500  -1.988  21.283  0.00  0.00    -0.265 N 
ATOM      2  CZ  ARG A   1      23.648  -0.970  22.144  0.00  0.00    +0.342 C 
ATOM      3  NH2 ARG A   1      24.787  -0.862  22.825  0.00  0.00    -0.292 N 
ATOM      4 HH21 ARG A   1      24.919  -0.079  23.497  0.00  0.00    +0.255 HD
ATOM      5 HH22 ARG A   1      25.545  -1.561  22.685  0.00  0.00    +0.255 HD
ATOM      6  NH1 ARG A   1      22.614  -0.094  22.370  0.00  0.00    -0.292 N 
ATOM      7 HH11 ARG A   1      22.736   0.693  23.039  0.00  0.00    +0.255 HD
ATOM      8 HH12 ARG A   1      21.709  -0.218  21.872  0.00  0.00    +0.255 HD
ATOM      9  HE  ARG A   1      24.299  -2.645  21.171  0.00  0.00    +0.259 HD
ENDROOT
BRANCH   1  10
ATOM     10  CD  ARG A   1      22.289  -2.244  20.484  0.00  0.00    +0.174 C 
BRANCH  10  11
ATOM     11  CG  ARG A   1      22.328  -3.741  19.916  0.00  0.00    +0.045 C 
BRANCH  11  12
ATOM     12  CB  ARG A   1      21.204  -3.910  18.827  0.00  0.00    +0.029 C 
BRANCH  12  13
ATOM     13  CA  ARG A   1      21.050  -5.395  18.301  0.00  0.00    +0.133 C 
BRANCH  13  14
ATOM     14  N   ARG A   1      20.064  -5.479  17.242  0.00  0.00    -0.239 NA
ATOM     15  H   ARG A   1      19.261  -4.818  17.252  0.00  0.00    +0.142 HD
ENDBRANCH  13  14
BRANCH  13  16
ATOM     16  C   ARG A   1      20.560  -6.301  19.430  0.00  0.00    +0.224 C 
ATOM     17  O   ARG A   1      19.362  -6.375  19.680  0.00  0.00    -0.287 OA
ENDBRANCH  13  16
ENDBRANCH  12  13
ENDBRANCH  11  12
ENDBRANCH  10  11
ENDBRANCH   1  10
TORSDOF 6
REMARK  Name = ../refined-set-2016/2weh/2weh_pocket.pdb
REMARK  149 active torsions:
REMARK  status: ('A' for Active; 'I' for Inactive)
REMARK    1  A    between atoms: _1  and  _3
REMARK    2  A    between atoms: _3  and  _4
REMARK    3  A    between atoms: _3  and  _6
REMARK    4  A    between atoms: _6  and  _7
REMARK    5  A    between atoms: _17  and  _19
REMARK    6  A    between atoms: _19  and  _20
REMARK    7  A    between atoms: _19  and  _22
REMARK    8  A    between atoms: _22  and  _23
REMARK    9  A    between atoms: _28  and  _29
REMARK   10  A    between atoms: _31  and  _33
REMARK   11  A    between atoms: _33  and  _34
REMARK   12  A    between atoms: _33  and  _36
REMARK   13  A    between atoms: _36  and  _37
REMARK   14  A    between atoms: _40  and  _41
REMARK   15  A    between atoms: _46  and  _48
REMARK   16  A    between atoms: _48  and  _49
REMARK   17  A    between atoms: _48  and  _51
REMARK   18  A    between atoms: _51  and  _52
REMARK   19  A    between atoms: _57  and  _59
REMARK   20  A    between atoms: _59  and  _60
REMARK   21  A    between atoms: _63  and  _65
REMARK   22  A    between atoms: _65  and  _66
REMARK   23  A    between atoms: _65  and  _68
REMARK   24  A    between atoms: _68  and  _69
REMARK   25  A    between atoms: _74  and  _76
REMARK   26  A    between atoms: _76  and  _77
REMARK   27  A    between atoms: _76  and  _79
REMARK   28  A    between atoms: _79  and  _80
REMARK   29  A    between atoms: _83  and  _85
REMARK   30  A    between atoms: _85  and  _86
REMARK   31  A    between atoms: _85  and  _88
REMARK   32  A    between atoms: _88  and  _89
REMARK   33  A    between atoms: _89  and  _90
REMARK   34  A    between atoms: _95  and  _97
REMARK   35  A    between atoms: _97  and  _98
REMARK   36  A    between atoms: _97  and  _100
REMARK   37  A    between atoms: _100  and  _101
REMARK   38  A    between atoms: _107  and  _109
REMARK   39  A    between atoms: _120  and  _123
REMARK   40  A    between atoms: _123  and  _124
REMARK   41  A    between atoms: _132  and  _133
REMARK   42  A    between atoms: _141  and  _143
REMARK   43  A    between atoms: _143  and  _144
REMARK   44  A    between atoms: _143  and  _146
REMARK   45  A    between atoms: _146  and  _147
REMARK   46  A    between atoms: _147  and  _148
REMARK   47  A    between atoms: _151  and  _153
REMARK   48  A    between atoms: _153  and  _154
REMARK   49  A    between atoms: _153  and  _156
REMARK   50  A    between atoms: _156  and  _157
REMARK   51  A    between atoms: _162  and  _164
REMARK   52  A    between atoms: _164  and  _165
REMARK   53  A    between atoms: _164  and  _167
REMARK   54  A    between atoms: _167  and  _168
REMARK   55  A    between atoms: _168  and  _169
REMARK   56  A    between atoms: _172  and  _174
REMARK   57  A    between atoms: _174  and  _175
REMARK   58  A    between atoms: _174  and  _177
REMARK   59  A    between atoms: _177  and  _178
REMARK   60  A    between atoms: _181  and  _183
REMARK   61  A    between atoms: _183  and  _184
REMARK   62  A    between atoms: _183  and  _186
REMARK   63  A    between atoms: _186  and  _187
REMARK   64  A    between atoms: _188  and  ZN_417
REMARK   65  A    between atoms: _192  and  _194
REMARK   66  A    between atoms: _194  and  _195
REMARK   67  A    between atoms: _194  and  _197
REMARK   68  A    between atoms: _197  and  _198
REMARK   69  A    between atoms: _201  and  _203
REMARK   70  A    between atoms: _203  and  _204
REMARK   71  A    between atoms: _203  and  _206
REMARK   72  A    between atoms: _209  and  _211
REMARK   73  A    between atoms: _211  and  _212
REMARK   74  A    between atoms: _211  and  _214
REMARK   75  A    between atoms: _214  and  _215
REMARK   76  A    between atoms: _220  and  _222
REMARK   77  A    between atoms: _222  and  _223
REMARK   78  A    between atoms: _222  and  _225
REMARK   79  A    between atoms: _225  and  _226
REMARK   80  A    between atoms: _232  and  _234
REMARK   81  A    between atoms: _234  and  _235
REMARK   82  A    between atoms: _234  and  _237
REMARK   83  A    between atoms: _240  and  _242
REMARK   84  A    between atoms: _242  and  _243
REMARK   85  A    between atoms: _242  and  _245
REMARK   86  A    between atoms: _245  and  _246
REMARK   87  A    between atoms: _249  and  _251
REMARK   88  A    between atoms: _251  and  _252
REMARK   89  A    between atoms: _255  and  _257
REMARK   90  A    between atoms: _257  and  _258
REMARK   91  A    between atoms: _257  and  _260
REMARK   92  A    between atoms: _263  and  _265
REMARK   93  A    between atoms: _265  and  _266
REMARK   94  A    between atoms: _265  and  _268
REMARK   95  A    between atoms: _268  and  _269
REMARK   96  A    between atoms: _272  and  _274
REMARK   97  A    between atoms: _274  and  _275
REMARK   98  A    between atoms: _277  and  _279
REMARK   99  A    between atoms: _279  and  _280
REMARK  100  A    between atoms: _282  and  _284
REMARK  101  A    between atoms: _284  and  _285
REMARK  102  A    between atoms: _284  and  _287
REMARK  103  A    between atoms: _287  and  _288
REMARK  104  A    between atoms: _290  and  _292
REMARK  105  A    between atoms: _292  and  _293
REMARK  106  A    between atoms: _292  and  _295
REMARK  107  A    between atoms: _295  and  _296
REMARK  108  A    between atoms: _299  and  _301
REMARK  109  A    between atoms: _301  and  _302
REMARK  110  A    between atoms: _301  and  _304
REMARK  111  A    between atoms: _304  and  _305
REMARK  112  A    between atoms: _308  and  _310
REMARK  113  A    between atoms: _310  and  _311
REMARK  114  A    between atoms: _310  and  _313
REMARK  115  A    between atoms: _313  and  _314
REMARK  116  A    between atoms: _318  and  _319
REMARK  117  A    between atoms: _325  and  _326
REMARK  118  A    between atoms: _331  and  _333
REMARK  119  A    between atoms: _333  and  _334
REMARK  120  A    between atoms: _333  and  _336
REMARK  121  A    between atoms: _336  and  _337
REMARK  122  A    between atoms: _340  and  _342
REMARK  123  A    between atoms: _342  and  _343
REMARK  124  A    between atoms: _342  and  _345
REMARK  125  A    between atoms: _345  and  _346
REMARK  126  A    between atoms: _349  and  _351
REMARK  127  A    between atoms: _351  and  _352
REMARK  128  A    between atoms: _351  and  _354
REMARK  129  A    between atoms: _356  and  _358
REMARK  130  A    between atoms: _358  and  _359
REMARK  131  A    between atoms: _358  and  _361
REMARK  132  A    between atoms: _364  and  _366
REMARK  133  A    between atoms: _366  and  _367
REMARK  134  A    between atoms: _366  and  _369
REMARK  135  A    between atoms: _369  and  _370
REMARK  136  A    between atoms: _373  and  _375
REMARK  137  A    between atoms: _375  and  _376
REMARK  138  A    between atoms: _375  and  _378
REMARK  139  A    between atoms: _378  and  _379
REMARK  140  A    between atoms: _389  and  _391
REMARK  141  A    between atoms: _391  and  _392
REMARK  142  A    between atoms: _391  and  _394
REMARK  143  A    between atoms: _394  and  _395
REMARK  144  A    between atoms: _400  and  _402
REMARK  145  A    between atoms: _402  and  _403
REMARK  146  A    between atoms: _402  and  _405
REMARK  147  A    between atoms: _405  and  _406
REMARK  148  A    between atoms: _406  and  _407
REMARK  149  A    between atoms: _407  and  _408
REMARK                            x       y       z     vdW  Elec       q    Type
REMARK                         _______ _______ _______ _____ _____    ______ ____
ROOT
ATOM      1  O   HOH     1      19.924  -2.338  15.694  0.00  0.00    +0.000 OA
ENDROOT
TORSDOF 0
REMARK  Name = ../refined-set-2016/2weh/2weh_pocket.pdb
REMARK  149 active torsions:
REMARK  status: ('A' for Active; 'I' for Inactive)
REMARK    1  A    between atoms: _1  and  _3
REMARK    2  A    between atoms: _3  and  _4
REMARK    3  A    between atoms: _3  and  _6
REMARK    4  A    between atoms: _6  and  _7
REMARK    5  A    between atoms: _17  and  _19
REMARK    6  A    between atoms: _19  and  _20
REMARK    7  A    between atoms: _19  and  _22
REMARK    8  A    between atoms: _22  and  _23
REMARK    9  A    between atoms: _28  and  _29
REMARK   10  A    between atoms: _31  and  _33
REMARK   11  A    between atoms: _33  and  _34
REMARK   12  A    between atoms: _33  and  _36
REMARK   13  A    between atoms: _36  and  _37
REMARK   14  A    between atoms: _40  and  _41
REMARK   15  A    between atoms: _46  and  _48
REMARK   16  A    between atoms: _48  and  _49
REMARK   17  A    between atoms: _48  and  _51
REMARK   18  A    between atoms: _51  and  _52
REMARK   19  A    between atoms: _57  and  _59
REMARK   20  A    between atoms: _59  and  _60
REMARK   21  A    between atoms: _63  and  _65
REMARK   22  A    between atoms: _65  and  _66
REMARK   23  A    between atoms: _65  and  _68
REMARK   24  A    between atoms: _68  and  _69
REMARK   25  A    between atoms: _74  and  _76
REMARK   26  A    between atoms: _76  and  _77
REMARK   27  A    between atoms: _76  and  _79
REMARK   28  A    between atoms: _79  and  _80
REMARK   29  A    between atoms: _83  and  _85
REMARK   30  A    between atoms: _85  and  _86
REMARK   31  A    between atoms: _85  and  _88
REMARK   32  A    between atoms: _88  and  _89
REMARK   33  A    between atoms: _89  and  _90
REMARK   34  A    between atoms: _95  and  _97
REMARK   35  A    between atoms: _97  and  _98
REMARK   36  A    between atoms: _97  and  _100
REMARK   37  A    between atoms: _100  and  _101
REMARK   38  A    between atoms: _107  and  _109
REMARK   39  A    between atoms: _120  and  _123
REMARK   40  A    between atoms: _123  and  _124
REMARK   41  A    between atoms: _132  and  _133
REMARK   42  A    between atoms: _141  and  _143
REMARK   43  A    between atoms: _143  and  _144
REMARK   44  A    between atoms: _143  and  _146
REMARK   45  A    between atoms: _146  and  _147
REMARK   46  A    between atoms: _147  and  _148
REMARK   47  A    between atoms: _151  and  _153
REMARK   48  A    between atoms: _153  and  _154
REMARK   49  A    between atoms: _153  and  _156
REMARK   50  A    between atoms: _156  and  _157
REMARK   51  A    between atoms: _162  and  _164
REMARK   52  A    between atoms: _164  and  _165
REMARK   53  A    between atoms: _164  and  _167
REMARK   54  A    between atoms: _167  and  _168
REMARK   55  A    between atoms: _168  and  _169
REMARK   56  A    between atoms: _172  and  _174
REMARK   57  A    between atoms: _174  and  _175
REMARK   58  A    between atoms: _174  and  _177
REMARK   59  A    between atoms: _177  and  _178
REMARK   60  A    between atoms: _181  and  _183
REMARK   61  A    between atoms: _183  and  _184
REMARK   62  A    between atoms: _183  and  _186
REMARK   63  A    between atoms: _186  and  _187
REMARK   64  A    between atoms: _188  and  ZN_417
REMARK   65  A    between atoms: _192  and  _194
REMARK   66  A    between atoms: _194  and  _195
REMARK   67  A    between atoms: _194  and  _197
REMARK   68  A    between atoms: _197  and  _198
REMARK   69  A    between atoms: _201  and  _203
REMARK   70  A    between atoms: _203  and  _204
REMARK   71  A    between atoms: _203  and  _206
REMARK   72  A    between atoms: _209  and  _211
REMARK   73  A    between atoms: _211  and  _212
REMARK   74  A    between atoms: _211  and  _214
REMARK   75  A    between atoms: _214  and  _215
REMARK   76  A    between atoms: _220  and  _222
REMARK   77  A    between atoms: _222  and  _223
REMARK   78  A    between atoms: _222  and  _225
REMARK   79  A    between atoms: _225  and  _226
REMARK   80  A    between atoms: _232  and  _234
REMARK   81  A    between atoms: _234  and  _235
REMARK   82  A    between atoms: _234  and  _237
REMARK   83  A    between atoms: _240  and  _242
REMARK   84  A    between atoms: _242  and  _243
REMARK   85  A    between atoms: _242  and  _245
REMARK   86  A    between atoms: _245  and  _246
REMARK   87  A    between atoms: _249  and  _251
REMARK   88  A    between atoms: _251  and  _252
REMARK   89  A    between atoms: _255  and  _257
REMARK   90  A    between atoms: _257  and  _258
REMARK   91  A    between atoms: _257  and  _260
REMARK   92  A    between atoms: _263  and  _265
REMARK   93  A    between atoms: _265  and  _266
REMARK   94  A    between atoms: _265  and  _268
REMARK   95  A    between atoms: _268  and  _269
REMARK   96  A    between atoms: _272  and  _274
REMARK   97  A    between atoms: _274  and  _275
REMARK   98  A    between atoms: _277  and  _279
REMARK   99  A    between atoms: _279  and  _280
REMARK  100  A    between atoms: _282  and  _284
REMARK  101  A    between atoms: _284  and  _285
REMARK  102  A    between atoms: _284  and  _287
REMARK  103  A    between atoms: _287  and  _288
REMARK  104  A    between atoms: _290  and  _292
REMARK  105  A    between atoms: _292  and  _293
REMARK  106  A    between atoms: _292  and  _295
REMARK  107  A    between atoms: _295  and  _296
REMARK  108  A    between atoms: _299  and  _301
REMARK  109  A    between atoms: _301  and  _302
REMARK  110  A    between atoms: _301  and  _304
REMARK  111  A    between atoms: _304  and  _305
REMARK  112  A    between atoms: _308  and  _310
REMARK  113  A    between atoms: _310  and  _311
REMARK  114  A    between atoms: _310  and  _313
REMARK  115  A    between atoms: _313  and  _314
REMARK  116  A    between atoms: _318  and  _319
REMARK  117  A    between atoms: _325  and  _326
REMARK  118  A    between atoms: _331  and  _333
REMARK  119  A    between atoms: _333  and  _334
REMARK  120  A    between atoms: _333  and  _336
REMARK  121  A    between atoms: _336  and  _337
REMARK  122  A    between atoms: _340  and  _342
REMARK  123  A    between atoms: _342  and  _343
REMARK  124  A    between atoms: _342  and  _345
REMARK  125  A    between atoms: _345  and  _346
REMARK  126  A    between atoms: _349  and  _351
REMARK  127  A    between atoms: _351  and  _352
REMARK  128  A    between atoms: _351  and  _354
REMARK  129  A    between atoms: _356  and  _358
REMARK  130  A    between atoms: _358  and  _359
REMARK  131  A    between atoms: _358  and  _361
REMARK  132  A    between atoms: _364  and  _366
REMARK  133  A    between atoms: _366  and  _367
REMARK  134  A    between atoms: _366  and  _369
REMARK  135  A    between atoms: _369  and  _370
REMARK  136  A    between atoms: _373  and  _375
REMARK  137  A    between atoms: _375  and  _376
REMARK  138  A    between atoms: _375  and  _378
REMARK  139  A    between atoms: _378  and  _379
REMARK  140  A    between atoms: _389  and  _391
REMARK  141  A    between atoms: _391  and  _392
REMARK  142  A    between atoms: _391  and  _394
REMARK  143  A    between atoms: _394  and  _395
REMARK  144  A    between atoms: _400  and  _402
REMARK  145  A    between atoms: _402  and  _403
REMARK  146  A    between atoms: _402  and  _405
REMARK  147  A    between atoms: _405  and  _406
REMARK  148  A    between atoms: _406  and  _407
REMARK  149  A    between atoms: _407  and  _408
REMARK                            x       y       z     vdW  Elec       q    Type
REMARK                         _______ _______ _______ _____ _____    ______ ____
ROOT
ATOM      1  O   HOH     1      12.907   9.531   8.413  0.00  0.00    +0.000 OA
ENDROOT
TORSDOF 0
REMARK  Name = ../refined-set-2016/2weh/2weh_pocket.pdb
REMARK  149 active torsions:
REMARK  status: ('A' for Active; 'I' for Inactive)
REMARK    1  A    between atoms: _1  and  _3
REMARK    2  A    between atoms: _3  and  _4
REMARK    3  A    between atoms: _3  and  _6
REMARK    4  A    between atoms: _6  and  _7
REMARK    5  A    between atoms: _17  and  _19
REMARK    6  A    between atoms: _19  and  _20
REMARK    7  A    between atoms: _19  and  _22
REMARK    8  A    between atoms: _22  and  _23
REMARK    9  A    between atoms: _28  and  _29
REMARK   10  A    between atoms: _31  and  _33
REMARK   11  A    between atoms: _33  and  _34
REMARK   12  A    between atoms: _33  and  _36
REMARK   13  A    between atoms: _36  and  _37
REMARK   14  A    between atoms: _40  and  _41
REMARK   15  A    between atoms: _46  and  _48
REMARK   16  A    between atoms: _48  and  _49
REMARK   17  A    between atoms: _48  and  _51
REMARK   18  A    between atoms: _51  and  _52
REMARK   19  A    between atoms: _57  and  _59
REMARK   20  A    between atoms: _59  and  _60
REMARK   21  A    between atoms: _63  and  _65
REMARK   22  A    between atoms: _65  and  _66
REMARK   23  A    between atoms: _65  and  _68
REMARK   24  A    between atoms: _68  and  _69
REMARK   25  A    between atoms: _74  and  _76
REMARK   26  A    between atoms: _76  and  _77
REMARK   27  A    between atoms: _76  and  _79
REMARK   28  A    between atoms: _79  and  _80
REMARK   29  A    between atoms: _83  and  _85
REMARK   30  A    between atoms: _85  and  _86
REMARK   31  A    between atoms: _85  and  _88
REMARK   32  A    between atoms: _88  and  _89
REMARK   33  A    between atoms: _89  and  _90
REMARK   34  A    between atoms: _95  and  _97
REMARK   35  A    between atoms: _97  and  _98
REMARK   36  A    between atoms: _97  and  _100
REMARK   37  A    between atoms: _100  and  _101
REMARK   38  A    between atoms: _107  and  _109
REMARK   39  A    between atoms: _120  and  _123
REMARK   40  A    between atoms: _123  and  _124
REMARK   41  A    between atoms: _132  and  _133
REMARK   42  A    between atoms: _141  and  _143
REMARK   43  A    between atoms: _143  and  _144
REMARK   44  A    between atoms: _143  and  _146
REMARK   45  A    between atoms: _146  and  _147
REMARK   46  A    between atoms: _147  and  _148
REMARK   47  A    between atoms: _151  and  _153
REMARK   48  A    between atoms: _153  and  _154
REMARK   49  A    between atoms: _153  and  _156
REMARK   50  A    between atoms: _156  and  _157
REMARK   51  A    between atoms: _162  and  _164
REMARK   52  A    between atoms: _164  and  _165
REMARK   53  A    between atoms: _164  and  _167
REMARK   54  A    between atoms: _167  and  _168
REMARK   55  A    between atoms: _168  and  _169
REMARK   56  A    between atoms: _172  and  _174
REMARK   57  A    between atoms: _174  and  _175
REMARK   58  A    between atoms: _174  and  _177
REMARK   59  A    between atoms: _177  and  _178
REMARK   60  A    between atoms: _181  and  _183
REMARK   61  A    between atoms: _183  and  _184
REMARK   62  A    between atoms: _183  and  _186
REMARK   63  A    between atoms: _186  and  _187
REMARK   64  A    between atoms: _188  and  ZN_417
REMARK   65  A    between atoms: _192  and  _194
REMARK   66  A    between atoms: _194  and  _195
REMARK   67  A    between atoms: _194  and  _197
REMARK   68  A    between atoms: _197  and  _198
REMARK   69  A    between atoms: _201  and  _203
REMARK   70  A    between atoms: _203  and  _204
REMARK   71  A    between atoms: _203  and  _206
REMARK   72  A    between atoms: _209  and  _211
REMARK   73  A    between atoms: _211  and  _212
REMARK   74  A    between atoms: _211  and  _214
REMARK   75  A    between atoms: _214  and  _215
REMARK   76  A    between atoms: _220  and  _222
REMARK   77  A    between atoms: _222  and  _223
REMARK   78  A    between atoms: _222  and  _225
REMARK   79  A    between atoms: _225  and  _226
REMARK   80  A    between atoms: _232  and  _234
REMARK   81  A    between atoms: _234  and  _235
REMARK   82  A    between atoms: _234  and  _237
REMARK   83  A    between atoms: _240  and  _242
REMARK   84  A    between atoms: _242  and  _243
REMARK   85  A    between atoms: _242  and  _245
REMARK   86  A    between atoms: _245  and  _246
REMARK   87  A    between atoms: _249  and  _251
REMARK   88  A    between atoms: _251  and  _252
REMARK   89  A    between atoms: _255  and  _257
REMARK   90  A    between atoms: _257  and  _258
REMARK   91  A    between atoms: _257  and  _260
REMARK   92  A    between atoms: _263  and  _265
REMARK   93  A    between atoms: _265  and  _266
REMARK   94  A    between atoms: _265  and  _268
REMARK   95  A    between atoms: _268  and  _269
REMARK   96  A    between atoms: _272  and  _274
REMARK   97  A    between atoms: _274  and  _275
REMARK   98  A    between atoms: _277  and  _279
REMARK   99  A    between atoms: _279  and  _280
REMARK  100  A    between atoms: _282  and  _284
REMARK  101  A    between atoms: _284  and  _285
REMARK  102  A    between atoms: _284  and  _287
REMARK  103  A    between atoms: _287  and  _288
REMARK  104  A    between atoms: _290  and  _292
REMARK  105  A    between atoms: _292  and  _293
REMARK  106  A    between atoms: _292  and  _295
REMARK  107  A    between atoms: _295  and  _296
REMARK  108  A    between atoms: _299  and  _301
REMARK  109  A    between atoms: _301  and  _302
REMARK  110  A    between atoms: _301  and  _304
REMARK  111  A    between atoms: _304  and  _305
REMARK  112  A    between atoms: _308  and  _310
REMARK  113  A    between atoms: _310  and  _311
REMARK  114  A    between atoms: _310  and  _313
REMARK  115  A    between atoms: _313  and  _314
REMARK  116  A    between atoms: _318  and  _319
REMARK  117  A    between atoms: _325  and  _326
REMARK  118  A    between atoms: _331  and  _333
REMARK  119  A    between atoms: _333  and  _334
REMARK  120  A    between atoms: _333  and  _336
REMARK  121  A    between atoms: _336  and  _337
REMARK  122  A    between atoms: _340  and  _342
REMARK  123  A    between atoms: _342  and  _343
REMARK  124  A    between atoms: _342  and  _345
REMARK  125  A    between atoms: _345  and  _346
REMARK  126  A    between atoms: _349  and  _351
REMARK  127  A    between atoms: _351  and  _352
REMARK  128  A    between atoms: _351  and  _354
REMARK  129  A    between atoms: _356  and  _358
REMARK  130  A    between atoms: _358  and  _359
REMARK  131  A    between atoms: _358  and  _361
REMARK  132  A    between atoms: _364  and  _366
REMARK  133  A    between atoms: _366  and  _367
REMARK  134  A    between atoms: _366  and  _369
REMARK  135  A    between atoms: _369  and  _370
REMARK  136  A    between atoms: _373  and  _375
REMARK  137  A    between atoms: _375  and  _376
REMARK  138  A    between atoms: _375  and  _378
REMARK  139  A    between atoms: _378  and  _379
REMARK  140  A    between atoms: _389  and  _391
REMARK  141  A    between atoms: _391  and  _392
REMARK  142  A    between atoms: _391  and  _394
REMARK  143  A    between atoms: _394  and  _395
REMARK  144  A    between atoms: _400  and  _402
REMARK  145  A    between atoms: _402  and  _403
REMARK  146  A    between atoms: _402  and  _405
REMARK  147  A    between atoms: _405  and  _406
REMARK  148  A    between atoms: _406  and  _407
REMARK  149  A    between atoms: _407  and  _408
REMARK                            x       y       z     vdW  Elec       q    Type
REMARK                         _______ _______ _______ _____ _____    ______ ____
ROOT
ATOM      1  O   HOH     1      14.592   8.813  11.026  0.00  0.00    +0.000 OA
ENDROOT
TORSDOF 0
REMARK  Name = ../refined-set-2016/2weh/2weh_pocket.pdb
REMARK  149 active torsions:
REMARK  status: ('A' for Active; 'I' for Inactive)
REMARK    1  A    between atoms: _1  and  _3
REMARK    2  A    between atoms: _3  and  _4
REMARK    3  A    between atoms: _3  and  _6
REMARK    4  A    between atoms: _6  and  _7
REMARK    5  A    between atoms: _17  and  _19
REMARK    6  A    between atoms: _19  and  _20
REMARK    7  A    between atoms: _19  and  _22
REMARK    8  A    between atoms: _22  and  _23
REMARK    9  A    between atoms: _28  and  _29
REMARK   10  A    between atoms: _31  and  _33
REMARK   11  A    between atoms: _33  and  _34
REMARK   12  A    between atoms: _33  and  _36
REMARK   13  A    between atoms: _36  and  _37
REMARK   14  A    between atoms: _40  and  _41
REMARK   15  A    between atoms: _46  and  _48
REMARK   16  A    between atoms: _48  and  _49
REMARK   17  A    between atoms: _48  and  _51
REMARK   18  A    between atoms: _51  and  _52
REMARK   19  A    between atoms: _57  and  _59
REMARK   20  A    between atoms: _59  and  _60
REMARK   21  A    between atoms: _63  and  _65
REMARK   22  A    between atoms: _65  and  _66
REMARK   23  A    between atoms: _65  and  _68
REMARK   24  A    between atoms: _68  and  _69
REMARK   25  A    between atoms: _74  and  _76
REMARK   26  A    between atoms: _76  and  _77
REMARK   27  A    between atoms: _76  and  _79
REMARK   28  A    between atoms: _79  and  _80
REMARK   29  A    between atoms: _83  and  _85
REMARK   30  A    between atoms: _85  and  _86
REMARK   31  A    between atoms: _85  and  _88
REMARK   32  A    between atoms: _88  and  _89
REMARK   33  A    between atoms: _89  and  _90
REMARK   34  A    between atoms: _95  and  _97
REMARK   35  A    between atoms: _97  and  _98
REMARK   36  A    between atoms: _97  and  _100
REMARK   37  A    between atoms: _100  and  _101
REMARK   38  A    between atoms: _107  and  _109
REMARK   39  A    between atoms: _120  and  _123
REMARK   40  A    between atoms: _123  and  _124
REMARK   41  A    between atoms: _132  and  _133
REMARK   42  A    between atoms: _141  and  _143
REMARK   43  A    between atoms: _143  and  _144
REMARK   44  A    between atoms: _143  and  _146
REMARK   45  A    between atoms: _146  and  _147
REMARK   46  A    between atoms: _147  and  _148
REMARK   47  A    between atoms: _151  and  _153
REMARK   48  A    between atoms: _153  and  _154
REMARK   49  A    between atoms: _153  and  _156
REMARK   50  A    between atoms: _156  and  _157
REMARK   51  A    between atoms: _162  and  _164
REMARK   52  A    between atoms: _164  and  _165
REMARK   53  A    between atoms: _164  and  _167
REMARK   54  A    between atoms: _167  and  _168
REMARK   55  A    between atoms: _168  and  _169
REMARK   56  A    between atoms: _172  and  _174
REMARK   57  A    between atoms: _174  and  _175
REMARK   58  A    between atoms: _174  and  _177
REMARK   59  A    between atoms: _177  and  _178
REMARK   60  A    between atoms: _181  and  _183
REMARK   61  A    between atoms: _183  and  _184
REMARK   62  A    between atoms: _183  and  _186
REMARK   63  A    between atoms: _186  and  _187
REMARK   64  A    between atoms: _188  and  ZN_417
REMARK   65  A    between atoms: _192  and  _194
REMARK   66  A    between atoms: _194  and  _195
REMARK   67  A    between atoms: _194  and  _197
REMARK   68  A    between atoms: _197  and  _198
REMARK   69  A    between atoms: _201  and  _203
REMARK   70  A    between atoms: _203  and  _204
REMARK   71  A    between atoms: _203  and  _206
REMARK   72  A    between atoms: _209  and  _211
REMARK   73  A    between atoms: _211  and  _212
REMARK   74  A    between atoms: _211  and  _214
REMARK   75  A    between atoms: _214  and  _215
REMARK   76  A    between atoms: _220  and  _222
REMARK   77  A    between atoms: _222  and  _223
REMARK   78  A    between atoms: _222  and  _225
REMARK   79  A    between atoms: _225  and  _226
REMARK   80  A    between atoms: _232  and  _234
REMARK   81  A    between atoms: _234  and  _235
REMARK   82  A    between atoms: _234  and  _237
REMARK   83  A    between atoms: _240  and  _242
REMARK   84  A    between atoms: _242  and  _243
REMARK   85  A    between atoms: _242  and  _245
REMARK   86  A    between atoms: _245  and  _246
REMARK   87  A    between atoms: _249  and  _251
REMARK   88  A    between atoms: _251  and  _252
REMARK   89  A    between atoms: _255  and  _257
REMARK   90  A    between atoms: _257  and  _258
REMARK   91  A    between atoms: _257  and  _260
REMARK   92  A    between atoms: _263  and  _265
REMARK   93  A    between atoms: _265  and  _266
REMARK   94  A    between atoms: _265  and  _268
REMARK   95  A    between atoms: _268  and  _269
REMARK   96  A    between atoms: _272  and  _274
REMARK   97  A    between atoms: _274  and  _275
REMARK   98  A    between atoms: _277  and  _279
REMARK   99  A    between atoms: _279  and  _280
REMARK  100  A    between atoms: _282  and  _284
REMARK  101  A    between atoms: _284  and  _285
REMARK  102  A    between atoms: _284  and  _287
REMARK  103  A    between atoms: _287  and  _288
REMARK  104  A    between atoms: _290  and  _292
REMARK  105  A    between atoms: _292  and  _293
REMARK  106  A    between atoms: _292  and  _295
REMARK  107  A    between atoms: _295  and  _296
REMARK  108  A    between atoms: _299  and  _301
REMARK  109  A    between atoms: _301  and  _302
REMARK  110  A    between atoms: _301  and  _304
REMARK  111  A    between atoms: _304  and  _305
REMARK  112  A    between atoms: _308  and  _310
REMARK  113  A    between atoms: _310  and  _311
REMARK  114  A    between atoms: _310  and  _313
REMARK  115  A    between atoms: _313  and  _314
REMARK  116  A    between atoms: _318  and  _319
REMARK  117  A    between atoms: _325  and  _326
REMARK  118  A    between atoms: _331  and  _333
REMARK  119  A    between atoms: _333  and  _334
REMARK  120  A    between atoms: _333  and  _336
REMARK  121  A    between atoms: _336  and  _337
REMARK  122  A    between atoms: _340  and  _342
REMARK  123  A    between atoms: _342  and  _343
REMARK  124  A    between atoms: _342  and  _345
REMARK  125  A    between atoms: _345  and  _346
REMARK  126  A    between atoms: _349  and  _351
REMARK  127  A    between atoms: _351  and  _352
REMARK  128  A    between atoms: _351  and  _354
REMARK  129  A    between atoms: _356  and  _358
REMARK  130  A    between atoms: _358  and  _359
REMARK  131  A    between atoms: _358  and  _361
REMARK  132  A    between atoms: _364  and  _366
REMARK  133  A    between atoms: _366  and  _367
REMARK  134  A    between atoms: _366  and  _369
REMARK  135  A    between atoms: _369  and  _370
REMARK  136  A    between atoms: _373  and  _375
REMARK  137  A    between atoms: _375  and  _376
REMARK  138  A    between atoms: _375  and  _378
REMARK  139  A    between atoms: _378  and  _379
REMARK  140  A    between atoms: _389  and  _391
REMARK  141  A    between atoms: _391  and  _392
REMARK  142  A    between atoms: _391  and  _394
REMARK  143  A    between atoms: _394  and  _395
REMARK  144  A    between atoms: _400  and  _402
REMARK  145  A    between atoms: _402  and  _403
REMARK  146  A    between atoms: _402  and  _405
REMARK  147  A    between atoms: _405  and  _406
REMARK  148  A    between atoms: _406  and  _407
REMARK  149  A    between atoms: _407  and  _408
REMARK                            x       y       z     vdW  Elec       q    Type
REMARK                         _______ _______ _______ _____ _____    ______ ____
ROOT
ATOM      1  O   HOH     1      18.681  -1.415  11.484  0.00  0.00    +0.000 OA
ENDROOT
TORSDOF 0
