REMARK  Name = ../refined-set-2016/4e3g/4e3g_pocket.pdb
REMARK  112 active torsions:
REMARK  status: ('A' for Active; 'I' for Inactive)
REMARK    1  A    between atoms: _1  and  _3
REMARK    2  A    between atoms: _3  and  _4
REMARK    3  A    between atoms: _3  and  _6
REMARK    4  A    between atoms: _6  and  _7
REMARK    5  A    between atoms: _17  and  _19
REMARK    6  A    between atoms: _19  and  _20
REMARK    7  A    between atoms: _19  and  _22
REMARK    8  A    between atoms: _22  and  _23
REMARK    9  A    between atoms: _28  and  _29
REMARK   10  A    between atoms: _31  and  _33
REMARK   11  A    between atoms: _33  and  _34
REMARK   12  A    between atoms: _33  and  _36
REMARK   13  A    between atoms: _36  and  _37
REMARK   14  A    between atoms: _47  and  _49
REMARK   15  A    between atoms: _49  and  _50
REMARK   16  A    between atoms: _49  and  _52
REMARK   17  A    between atoms: _52  and  _53
REMARK   18  A    between atoms: _58  and  _60
REMARK   19  A    between atoms: _60  and  _61
REMARK   20  A    between atoms: _60  and  _63
REMARK   21  A    between atoms: _63  and  _64
REMARK   22  A    between atoms: _69  and  _71
REMARK   23  A    between atoms: _71  and  _72
REMARK   24  A    between atoms: _71  and  _74
REMARK   25  A    between atoms: _74  and  _75
REMARK   26  A    between atoms: _78  and  _80
REMARK   27  A    between atoms: _80  and  _81
REMARK   28  A    between atoms: _80  and  _83
REMARK   29  A    between atoms: _83  and  _84
REMARK   30  A    between atoms: _84  and  _85
REMARK   31  A    between atoms: _90  and  _92
REMARK   32  A    between atoms: _92  and  _93
REMARK   33  A    between atoms: _92  and  _95
REMARK   34  A    between atoms: _95  and  _96
REMARK   35  A    between atoms: _102  and  _104
REMARK   36  A    between atoms: _104  and  _105
REMARK   37  A    between atoms: _104  and  _107
REMARK   38  A    between atoms: _107  and  _108
REMARK   39  A    between atoms: _112  and  ZN_301
REMARK   40  A    between atoms: _113  and  _115
REMARK   41  A    between atoms: _115  and  _116
REMARK   42  A    between atoms: _115  and  _118
REMARK   43  A    between atoms: _118  and  _119
REMARK   44  A    between atoms: _123  and  ZN_301
REMARK   45  A    between atoms: _124  and  _126
REMARK   46  A    between atoms: _126  and  _127
REMARK   47  A    between atoms: _126  and  _129
REMARK   48  A    between atoms: _129  and  _130
REMARK   49  A    between atoms: _130  and  _131
REMARK   50  A    between atoms: _134  and  _136
REMARK   51  A    between atoms: _136  and  _137
REMARK   52  A    between atoms: _136  and  _139
REMARK   53  A    between atoms: _139  and  _140
REMARK   54  A    between atoms: _141  and  ZN_301
REMARK   55  A    between atoms: _145  and  _147
REMARK   56  A    between atoms: _147  and  _148
REMARK   57  A    between atoms: _147  and  _150
REMARK   58  A    between atoms: _150  and  _151
REMARK   59  A    between atoms: _154  and  _156
REMARK   60  A    between atoms: _156  and  _157
REMARK   61  A    between atoms: _156  and  _159
REMARK   62  A    between atoms: _162  and  _164
REMARK   63  A    between atoms: _164  and  _165
REMARK   64  A    between atoms: _164  and  _167
REMARK   65  A    between atoms: _167  and  _168
REMARK   66  A    between atoms: _173  and  _175
REMARK   67  A    between atoms: _175  and  _176
REMARK   68  A    between atoms: _175  and  _178
REMARK   69  A    between atoms: _178  and  _179
REMARK   70  A    between atoms: _185  and  _187
REMARK   71  A    between atoms: _187  and  _188
REMARK   72  A    between atoms: _187  and  _190
REMARK   73  A    between atoms: _193  and  _195
REMARK   74  A    between atoms: _195  and  _196
REMARK   75  A    between atoms: _195  and  _198
REMARK   76  A    between atoms: _198  and  _199
REMARK   77  A    between atoms: _202  and  _204
REMARK   78  A    between atoms: _204  and  _205
REMARK   79  A    between atoms: _204  and  _207
REMARK   80  A    between atoms: _210  and  _212
REMARK   81  A    between atoms: _212  and  _213
REMARK   82  A    between atoms: _212  and  _215
REMARK   83  A    between atoms: _215  and  _216
REMARK   84  A    between atoms: _218  and  _220
REMARK   85  A    between atoms: _220  and  _221
REMARK   86  A    between atoms: _220  and  _223
REMARK   87  A    between atoms: _223  and  _224
REMARK   88  A    between atoms: _227  and  _229
REMARK   89  A    between atoms: _229  and  _230
REMARK   90  A    between atoms: _229  and  _232
REMARK   91  A    between atoms: _232  and  _233
REMARK   92  A    between atoms: _236  and  _238
REMARK   93  A    between atoms: _238  and  _239
REMARK   94  A    between atoms: _238  and  _241
REMARK   95  A    between atoms: _241  and  _242
REMARK   96  A    between atoms: _246  and  _247
REMARK   97  A    between atoms: _253  and  _254
REMARK   98  A    between atoms: _259  and  _261
REMARK   99  A    between atoms: _261  and  _262
REMARK  100  A    between atoms: _261  and  _264
REMARK  101  A    between atoms: _264  and  _265
REMARK  102  A    between atoms: _268  and  _270
REMARK  103  A    between atoms: _270  and  _271
REMARK  104  A    between atoms: _270  and  _273
REMARK  105  A    between atoms: _273  and  _274
REMARK  106  A    between atoms: _277  and  _279
REMARK  107  A    between atoms: _279  and  _280
REMARK  108  A    between atoms: _279  and  _282
REMARK  109  A    between atoms: _285  and  _287
REMARK  110  A    between atoms: _287  and  _288
REMARK  111  A    between atoms: _287  and  _290
REMARK  112  A    between atoms: _290  and  _291
REMARK                            x       y       z     vdW  Elec       q    Type
REMARK                         _______ _______ _______ _____ _____    ______ ____
ROOT
ATOM      1  CG  TRP A   1      26.714  -0.198  11.958  0.00  0.00    -0.002 A 
ATOM      2  CD2 TRP A   1      25.348  -0.634  11.978  0.00  0.00    +0.013 A 
ATOM      3  CE3 TRP A   1      24.715  -1.878  12.190  0.00  0.00    +0.001 A 
ATOM      4  CZ3 TRP A   1      23.281  -1.930  12.051  0.00  0.00    +0.000 A 
ATOM      5  CH2 TRP A   1      22.534  -0.789  11.684  0.00  0.00    +0.001 A 
ATOM      6  CZ2 TRP A   1      23.170   0.379  11.375  0.00  0.00    +0.017 A 
ATOM      7  CE2 TRP A   1      24.561   0.456  11.526  0.00  0.00    +0.056 A 
ATOM      8  NE1 TRP A   1      25.404   1.514  11.303  0.00  0.00    -0.352 N 
ATOM      9  HE1 TRP A   1      25.114   2.462  10.988  0.00  0.00    +0.166 HD
ATOM     10  CD1 TRP A   1      26.694   1.119  11.563  0.00  0.00    +0.068 A 
ENDROOT
BRANCH   1  11
ATOM     11  CB  TRP A   1      27.930  -1.031  12.333  0.00  0.00    +0.053 C 
BRANCH  11  12
ATOM     12  CA  TRP A   1      28.587  -1.703  11.115  0.00  0.00    +0.137 C 
BRANCH  12  13
ATOM     13  N   TRP A   1      29.185  -0.681  10.260  0.00  0.00    -0.239 NA
ATOM     14  H   TRP A   1      28.916   0.318  10.368  0.00  0.00    +0.142 HD
ENDBRANCH  12  13
BRANCH  12  15
ATOM     15  C   TRP A   1      27.560  -2.556  10.378  0.00  0.00    +0.224 C 
ATOM     16  O   TRP A   1      26.929  -2.152   9.368  0.00  0.00    -0.287 OA
ENDBRANCH  12  15
ENDBRANCH  11  12
ENDBRANCH   1  11
TORSDOF 4
REMARK  Name = ../refined-set-2016/4e3g/4e3g_pocket.pdb
REMARK  112 active torsions:
REMARK  status: ('A' for Active; 'I' for Inactive)
REMARK    1  A    between atoms: _1  and  _3
REMARK    2  A    between atoms: _3  and  _4
REMARK    3  A    between atoms: _3  and  _6
REMARK    4  A    between atoms: _6  and  _7
REMARK    5  A    between atoms: _17  and  _19
REMARK    6  A    between atoms: _19  and  _20
REMARK    7  A    between atoms: _19  and  _22
REMARK    8  A    between atoms: _22  and  _23
REMARK    9  A    between atoms: _28  and  _29
REMARK   10  A    between atoms: _31  and  _33
REMARK   11  A    between atoms: _33  and  _34
REMARK   12  A    between atoms: _33  and  _36
REMARK   13  A    between atoms: _36  and  _37
REMARK   14  A    between atoms: _47  and  _49
REMARK   15  A    between atoms: _49  and  _50
REMARK   16  A    between atoms: _49  and  _52
REMARK   17  A    between atoms: _52  and  _53
REMARK   18  A    between atoms: _58  and  _60
REMARK   19  A    between atoms: _60  and  _61
REMARK   20  A    between atoms: _60  and  _63
REMARK   21  A    between atoms: _63  and  _64
REMARK   22  A    between atoms: _69  and  _71
REMARK   23  A    between atoms: _71  and  _72
REMARK   24  A    between atoms: _71  and  _74
REMARK   25  A    between atoms: _74  and  _75
REMARK   26  A    between atoms: _78  and  _80
REMARK   27  A    between atoms: _80  and  _81
REMARK   28  A    between atoms: _80  and  _83
REMARK   29  A    between atoms: _83  and  _84
REMARK   30  A    between atoms: _84  and  _85
REMARK   31  A    between atoms: _90  and  _92
REMARK   32  A    between atoms: _92  and  _93
REMARK   33  A    between atoms: _92  and  _95
REMARK   34  A    between atoms: _95  and  _96
REMARK   35  A    between atoms: _102  and  _104
REMARK   36  A    between atoms: _104  and  _105
REMARK   37  A    between atoms: _104  and  _107
REMARK   38  A    between atoms: _107  and  _108
REMARK   39  A    between atoms: _112  and  ZN_301
REMARK   40  A    between atoms: _113  and  _115
REMARK   41  A    between atoms: _115  and  _116
REMARK   42  A    between atoms: _115  and  _118
REMARK   43  A    between atoms: _118  and  _119
REMARK   44  A    between atoms: _123  and  ZN_301
REMARK   45  A    between atoms: _124  and  _126
REMARK   46  A    between atoms: _126  and  _127
REMARK   47  A    between atoms: _126  and  _129
REMARK   48  A    between atoms: _129  and  _130
REMARK   49  A    between atoms: _130  and  _131
REMARK   50  A    between atoms: _134  and  _136
REMARK   51  A    between atoms: _136  and  _137
REMARK   52  A    between atoms: _136  and  _139
REMARK   53  A    between atoms: _139  and  _140
REMARK   54  A    between atoms: _141  and  ZN_301
REMARK   55  A    between atoms: _145  and  _147
REMARK   56  A    between atoms: _147  and  _148
REMARK   57  A    between atoms: _147  and  _150
REMARK   58  A    between atoms: _150  and  _151
REMARK   59  A    between atoms: _154  and  _156
REMARK   60  A    between atoms: _156  and  _157
REMARK   61  A    between atoms: _156  and  _159
REMARK   62  A    between atoms: _162  and  _164
REMARK   63  A    between atoms: _164  and  _165
REMARK   64  A    between atoms: _164  and  _167
REMARK   65  A    between atoms: _167  and  _168
REMARK   66  A    between atoms: _173  and  _175
REMARK   67  A    between atoms: _175  and  _176
REMARK   68  A    between atoms: _175  and  _178
REMARK   69  A    between atoms: _178  and  _179
REMARK   70  A    between atoms: _185  and  _187
REMARK   71  A    between atoms: _187  and  _188
REMARK   72  A    between atoms: _187  and  _190
REMARK   73  A    between atoms: _193  and  _195
REMARK   74  A    between atoms: _195  and  _196
REMARK   75  A    between atoms: _195  and  _198
REMARK   76  A    between atoms: _198  and  _199
REMARK   77  A    between atoms: _202  and  _204
REMARK   78  A    between atoms: _204  and  _205
REMARK   79  A    between atoms: _204  and  _207
REMARK   80  A    between atoms: _210  and  _212
REMARK   81  A    between atoms: _212  and  _213
REMARK   82  A    between atoms: _212  and  _215
REMARK   83  A    between atoms: _215  and  _216
REMARK   84  A    between atoms: _218  and  _220
REMARK   85  A    between atoms: _220  and  _221
REMARK   86  A    between atoms: _220  and  _223
REMARK   87  A    between atoms: _223  and  _224
REMARK   88  A    between atoms: _227  and  _229
REMARK   89  A    between atoms: _229  and  _230
REMARK   90  A    between atoms: _229  and  _232
REMARK   91  A    between atoms: _232  and  _233
REMARK   92  A    between atoms: _236  and  _238
REMARK   93  A    between atoms: _238  and  _239
REMARK   94  A    between atoms: _238  and  _241
REMARK   95  A    between atoms: _241  and  _242
REMARK   96  A    between atoms: _246  and  _247
REMARK   97  A    between atoms: _253  and  _254
REMARK   98  A    between atoms: _259  and  _261
REMARK   99  A    between atoms: _261  and  _262
REMARK  100  A    between atoms: _261  and  _264
REMARK  101  A    between atoms: _264  and  _265
REMARK  102  A    between atoms: _268  and  _270
REMARK  103  A    between atoms: _270  and  _271
REMARK  104  A    between atoms: _270  and  _273
REMARK  105  A    between atoms: _273  and  _274
REMARK  106  A    between atoms: _277  and  _279
REMARK  107  A    between atoms: _279  and  _280
REMARK  108  A    between atoms: _279  and  _282
REMARK  109  A    between atoms: _285  and  _287
REMARK  110  A    between atoms: _287  and  _288
REMARK  111  A    between atoms: _287  and  _290
REMARK  112  A    between atoms: _290  and  _291
REMARK                            x       y       z     vdW  Elec       q    Type
REMARK                         _______ _______ _______ _____ _____    ______ ____
ROOT
ATOM      1  CG  TYR A   1      22.988  -7.346  11.804  0.00  0.00    -0.020 A 
ATOM      2  CD2 TYR A   1      22.643  -7.314  13.183  0.00  0.00    -0.001 A 
ATOM      3  CE2 TYR A   1      21.801  -6.290  13.666  0.00  0.00    +0.036 A 
ATOM      4  CZ  TYR A   1      21.354  -5.274  12.815  0.00  0.00    +0.134 A 
ATOM      5  CE1 TYR A   1      21.710  -5.281  11.454  0.00  0.00    +0.036 A 
ATOM      6  CD1 TYR A   1      22.541  -6.310  10.980  0.00  0.00    -0.001 A 
ENDROOT
BRANCH   4   7
ATOM      7  OH  TYR A   1      20.531  -4.275  13.156  0.00  0.00    -0.506 OA
ATOM      8  HH  TYR A   1      20.325  -4.334  14.123  0.00  0.00    +0.292 HD
ENDBRANCH   4   7
BRANCH   1   9
ATOM      9  CB  TYR A   1      23.899  -8.419  11.270  0.00  0.00    +0.051 C 
BRANCH   9  10
ATOM     10  CA  TYR A   1      25.383  -8.114  11.449  0.00  0.00    +0.137 C 
BRANCH  10  11
ATOM     11  N   TYR A   1      25.717  -6.913  10.666  0.00  0.00    -0.239 NA
ATOM     12  H   TYR A   1      25.690  -6.958   9.627  0.00  0.00    +0.142 HD
ENDBRANCH  10  11
BRANCH  10  13
ATOM     13  C   TYR A   1      26.136  -9.387  11.031  0.00  0.00    +0.224 C 
ATOM     14  O   TYR A   1      25.617 -10.525  11.123  0.00  0.00    -0.287 OA
ENDBRANCH  10  13
ENDBRANCH   9  10
ENDBRANCH   1   9
TORSDOF 5
REMARK  Name = ../refined-set-2016/4e3g/4e3g_pocket.pdb
REMARK  112 active torsions:
REMARK  status: ('A' for Active; 'I' for Inactive)
REMARK    1  A    between atoms: _1  and  _3
REMARK    2  A    between atoms: _3  and  _4
REMARK    3  A    between atoms: _3  and  _6
REMARK    4  A    between atoms: _6  and  _7
REMARK    5  A    between atoms: _17  and  _19
REMARK    6  A    between atoms: _19  and  _20
REMARK    7  A    between atoms: _19  and  _22
REMARK    8  A    between atoms: _22  and  _23
REMARK    9  A    between atoms: _28  and  _29
REMARK   10  A    between atoms: _31  and  _33
REMARK   11  A    between atoms: _33  and  _34
REMARK   12  A    between atoms: _33  and  _36
REMARK   13  A    between atoms: _36  and  _37
REMARK   14  A    between atoms: _47  and  _49
REMARK   15  A    between atoms: _49  and  _50
REMARK   16  A    between atoms: _49  and  _52
REMARK   17  A    between atoms: _52  and  _53
REMARK   18  A    between atoms: _58  and  _60
REMARK   19  A    between atoms: _60  and  _61
REMARK   20  A    between atoms: _60  and  _63
REMARK   21  A    between atoms: _63  and  _64
REMARK   22  A    between atoms: _69  and  _71
REMARK   23  A    between atoms: _71  and  _72
REMARK   24  A    between atoms: _71  and  _74
REMARK   25  A    between atoms: _74  and  _75
REMARK   26  A    between atoms: _78  and  _80
REMARK   27  A    between atoms: _80  and  _81
REMARK   28  A    between atoms: _80  and  _83
REMARK   29  A    between atoms: _83  and  _84
REMARK   30  A    between atoms: _84  and  _85
REMARK   31  A    between atoms: _90  and  _92
REMARK   32  A    between atoms: _92  and  _93
REMARK   33  A    between atoms: _92  and  _95
REMARK   34  A    between atoms: _95  and  _96
REMARK   35  A    between atoms: _102  and  _104
REMARK   36  A    between atoms: _104  and  _105
REMARK   37  A    between atoms: _104  and  _107
REMARK   38  A    between atoms: _107  and  _108
REMARK   39  A    between atoms: _112  and  ZN_301
REMARK   40  A    between atoms: _113  and  _115
REMARK   41  A    between atoms: _115  and  _116
REMARK   42  A    between atoms: _115  and  _118
REMARK   43  A    between atoms: _118  and  _119
REMARK   44  A    between atoms: _123  and  ZN_301
REMARK   45  A    between atoms: _124  and  _126
REMARK   46  A    between atoms: _126  and  _127
REMARK   47  A    between atoms: _126  and  _129
REMARK   48  A    between atoms: _129  and  _130
REMARK   49  A    between atoms: _130  and  _131
REMARK   50  A    between atoms: _134  and  _136
REMARK   51  A    between atoms: _136  and  _137
REMARK   52  A    between atoms: _136  and  _139
REMARK   53  A    between atoms: _139  and  _140
REMARK   54  A    between atoms: _141  and  ZN_301
REMARK   55  A    between atoms: _145  and  _147
REMARK   56  A    between atoms: _147  and  _148
REMARK   57  A    between atoms: _147  and  _150
REMARK   58  A    between atoms: _150  and  _151
REMARK   59  A    between atoms: _154  and  _156
REMARK   60  A    between atoms: _156  and  _157
REMARK   61  A    between atoms: _156  and  _159
REMARK   62  A    between atoms: _162  and  _164
REMARK   63  A    between atoms: _164  and  _165
REMARK   64  A    between atoms: _164  and  _167
REMARK   65  A    between atoms: _167  and  _168
REMARK   66  A    between atoms: _173  and  _175
REMARK   67  A    between atoms: _175  and  _176
REMARK   68  A    between atoms: _175  and  _178
REMARK   69  A    between atoms: _178  and  _179
REMARK   70  A    between atoms: _185  and  _187
REMARK   71  A    between atoms: _187  and  _188
REMARK   72  A    between atoms: _187  and  _190
REMARK   73  A    between atoms: _193  and  _195
REMARK   74  A    between atoms: _195  and  _196
REMARK   75  A    between atoms: _195  and  _198
REMARK   76  A    between atoms: _198  and  _199
REMARK   77  A    between atoms: _202  and  _204
REMARK   78  A    between atoms: _204  and  _205
REMARK   79  A    between atoms: _204  and  _207
REMARK   80  A    between atoms: _210  and  _212
REMARK   81  A    between atoms: _212  and  _213
REMARK   82  A    between atoms: _212  and  _215
REMARK   83  A    between atoms: _215  and  _216
REMARK   84  A    between atoms: _218  and  _220
REMARK   85  A    between atoms: _220  and  _221
REMARK   86  A    between atoms: _220  and  _223
REMARK   87  A    between atoms: _223  and  _224
REMARK   88  A    between atoms: _227  and  _229
REMARK   89  A    between atoms: _229  and  _230
REMARK   90  A    between atoms: _229  and  _232
REMARK   91  A    between atoms: _232  and  _233
REMARK   92  A    between atoms: _236  and  _238
REMARK   93  A    between atoms: _238  and  _239
REMARK   94  A    between atoms: _238  and  _241
REMARK   95  A    between atoms: _241  and  _242
REMARK   96  A    between atoms: _246  and  _247
REMARK   97  A    between atoms: _253  and  _254
REMARK   98  A    between atoms: _259  and  _261
REMARK   99  A    between atoms: _261  and  _262
REMARK  100  A    between atoms: _261  and  _264
REMARK  101  A    between atoms: _264  and  _265
REMARK  102  A    between atoms: _268  and  _270
REMARK  103  A    between atoms: _270  and  _271
REMARK  104  A    between atoms: _270  and  _273
REMARK  105  A    between atoms: _273  and  _274
REMARK  106  A    between atoms: _277  and  _279
REMARK  107  A    between atoms: _279  and  _280
REMARK  108  A    between atoms: _279  and  _282
REMARK  109  A    between atoms: _285  and  _287
REMARK  110  A    between atoms: _287  and  _288
REMARK  111  A    between atoms: _287  and  _290
REMARK  112  A    between atoms: _290  and  _291
REMARK                            x       y       z     vdW  Elec       q    Type
REMARK                         _______ _______ _______ _____ _____    ______ ____
ROOT
ATOM      1  CG  TRP A   1      27.451  -2.697  16.664  0.00  0.00    -0.002 A 
ATOM      2  CD2 TRP A   1      26.057  -2.953  16.605  0.00  0.00    +0.013 A 
ATOM      3  CE3 TRP A   1      24.980  -2.686  17.477  0.00  0.00    +0.001 A 
ATOM      4  CZ3 TRP A   1      23.684  -3.106  17.132  0.00  0.00    +0.000 A 
ATOM      5  CH2 TRP A   1      23.448  -3.750  15.933  0.00  0.00    +0.001 A 
ATOM      6  CZ2 TRP A   1      24.509  -4.092  15.042  0.00  0.00    +0.017 A 
ATOM      7  CE2 TRP A   1      25.809  -3.653  15.390  0.00  0.00    +0.056 A 
ATOM      8  NE1 TRP A   1      27.013  -3.808  14.730  0.00  0.00    -0.352 N 
ATOM      9  HE1 TRP A   1      27.158  -4.300  13.825  0.00  0.00    +0.166 HD
ATOM     10  CD1 TRP A   1      27.984  -3.196  15.484  0.00  0.00    +0.068 A 
ENDROOT
BRANCH   1  11
ATOM     11  CB  TRP A   1      28.174  -1.969  17.789  0.00  0.00    +0.053 C 
BRANCH  11  12
ATOM     12  CA  TRP A   1      29.729  -1.962  17.638  0.00  0.00    +0.137 C 
BRANCH  12  13
ATOM     13  N   TRP A   1      30.240  -3.301  17.795  0.00  0.00    -0.239 NA
ATOM     14  H   TRP A   1      29.610  -4.101  18.005  0.00  0.00    +0.142 HD
ENDBRANCH  12  13
BRANCH  12  15
ATOM     15  C   TRP A   1      30.250  -0.953  18.658  0.00  0.00    +0.224 C 
ATOM     16  O   TRP A   1      30.370   0.286  18.367  0.00  0.00    -0.287 OA
ENDBRANCH  12  15
ENDBRANCH  11  12
ENDBRANCH   1  11
TORSDOF 4
REMARK  Name = ../refined-set-2016/4e3g/4e3g_pocket.pdb
REMARK  112 active torsions:
REMARK  status: ('A' for Active; 'I' for Inactive)
REMARK    1  A    between atoms: _1  and  _3
REMARK    2  A    between atoms: _3  and  _4
REMARK    3  A    between atoms: _3  and  _6
REMARK    4  A    between atoms: _6  and  _7
REMARK    5  A    between atoms: _17  and  _19
REMARK    6  A    between atoms: _19  and  _20
REMARK    7  A    between atoms: _19  and  _22
REMARK    8  A    between atoms: _22  and  _23
REMARK    9  A    between atoms: _28  and  _29
REMARK   10  A    between atoms: _31  and  _33
REMARK   11  A    between atoms: _33  and  _34
REMARK   12  A    between atoms: _33  and  _36
REMARK   13  A    between atoms: _36  and  _37
REMARK   14  A    between atoms: _47  and  _49
REMARK   15  A    between atoms: _49  and  _50
REMARK   16  A    between atoms: _49  and  _52
REMARK   17  A    between atoms: _52  and  _53
REMARK   18  A    between atoms: _58  and  _60
REMARK   19  A    between atoms: _60  and  _61
REMARK   20  A    between atoms: _60  and  _63
REMARK   21  A    between atoms: _63  and  _64
REMARK   22  A    between atoms: _69  and  _71
REMARK   23  A    between atoms: _71  and  _72
REMARK   24  A    between atoms: _71  and  _74
REMARK   25  A    between atoms: _74  and  _75
REMARK   26  A    between atoms: _78  and  _80
REMARK   27  A    between atoms: _80  and  _81
REMARK   28  A    between atoms: _80  and  _83
REMARK   29  A    between atoms: _83  and  _84
REMARK   30  A    between atoms: _84  and  _85
REMARK   31  A    between atoms: _90  and  _92
REMARK   32  A    between atoms: _92  and  _93
REMARK   33  A    between atoms: _92  and  _95
REMARK   34  A    between atoms: _95  and  _96
REMARK   35  A    between atoms: _102  and  _104
REMARK   36  A    between atoms: _104  and  _105
REMARK   37  A    between atoms: _104  and  _107
REMARK   38  A    between atoms: _107  and  _108
REMARK   39  A    between atoms: _112  and  ZN_301
REMARK   40  A    between atoms: _113  and  _115
REMARK   41  A    between atoms: _115  and  _116
REMARK   42  A    between atoms: _115  and  _118
REMARK   43  A    between atoms: _118  and  _119
REMARK   44  A    between atoms: _123  and  ZN_301
REMARK   45  A    between atoms: _124  and  _126
REMARK   46  A    between atoms: _126  and  _127
REMARK   47  A    between atoms: _126  and  _129
REMARK   48  A    between atoms: _129  and  _130
REMARK   49  A    between atoms: _130  and  _131
REMARK   50  A    between atoms: _134  and  _136
REMARK   51  A    between atoms: _136  and  _137
REMARK   52  A    between atoms: _136  and  _139
REMARK   53  A    between atoms: _139  and  _140
REMARK   54  A    between atoms: _141  and  ZN_301
REMARK   55  A    between atoms: _145  and  _147
REMARK   56  A    between atoms: _147  and  _148
REMARK   57  A    between atoms: _147  and  _150
REMARK   58  A    between atoms: _150  and  _151
REMARK   59  A    between atoms: _154  and  _156
REMARK   60  A    between atoms: _156  and  _157
REMARK   61  A    between atoms: _156  and  _159
REMARK   62  A    between atoms: _162  and  _164
REMARK   63  A    between atoms: _164  and  _165
REMARK   64  A    between atoms: _164  and  _167
REMARK   65  A    between atoms: _167  and  _168
REMARK   66  A    between atoms: _173  and  _175
REMARK   67  A    between atoms: _175  and  _176
REMARK   68  A    between atoms: _175  and  _178
REMARK   69  A    between atoms: _178  and  _179
REMARK   70  A    between atoms: _185  and  _187
REMARK   71  A    between atoms: _187  and  _188
REMARK   72  A    between atoms: _187  and  _190
REMARK   73  A    between atoms: _193  and  _195
REMARK   74  A    between atoms: _195  and  _196
REMARK   75  A    between atoms: _195  and  _198
REMARK   76  A    between atoms: _198  and  _199
REMARK   77  A    between atoms: _202  and  _204
REMARK   78  A    between atoms: _204  and  _205
REMARK   79  A    between atoms: _204  and  _207
REMARK   80  A    between atoms: _210  and  _212
REMARK   81  A    between atoms: _212  and  _213
REMARK   82  A    between atoms: _212  and  _215
REMARK   83  A    between atoms: _215  and  _216
REMARK   84  A    between atoms: _218  and  _220
REMARK   85  A    between atoms: _220  and  _221
REMARK   86  A    between atoms: _220  and  _223
REMARK   87  A    between atoms: _223  and  _224
REMARK   88  A    between atoms: _227  and  _229
REMARK   89  A    between atoms: _229  and  _230
REMARK   90  A    between atoms: _229  and  _232
REMARK   91  A    between atoms: _232  and  _233
REMARK   92  A    between atoms: _236  and  _238
REMARK   93  A    between atoms: _238  and  _239
REMARK   94  A    between atoms: _238  and  _241
REMARK   95  A    between atoms: _241  and  _242
REMARK   96  A    between atoms: _246  and  _247
REMARK   97  A    between atoms: _253  and  _254
REMARK   98  A    between atoms: _259  and  _261
REMARK   99  A    between atoms: _261  and  _262
REMARK  100  A    between atoms: _261  and  _264
REMARK  101  A    between atoms: _264  and  _265
REMARK  102  A    between atoms: _268  and  _270
REMARK  103  A    between atoms: _270  and  _271
REMARK  104  A    between atoms: _270  and  _273
REMARK  105  A    between atoms: _273  and  _274
REMARK  106  A    between atoms: _277  and  _279
REMARK  107  A    between atoms: _279  and  _280
REMARK  108  A    between atoms: _279  and  _282
REMARK  109  A    between atoms: _285  and  _287
REMARK  110  A    between atoms: _287  and  _288
REMARK  111  A    between atoms: _287  and  _290
REMARK  112  A    between atoms: _290  and  _291
REMARK                            x       y       z     vdW  Elec       q    Type
REMARK                         _______ _______ _______ _____ _____    ______ ____
ROOT
ATOM      1  CB  ASN A   1      18.792   1.701   5.181  0.00  0.00    +0.110 C 
ENDROOT
BRANCH   1   2
ATOM      2  CG  ASN A   1      18.393   0.851   6.423  0.00  0.00    +0.221 C 
ATOM      3  ND2 ASN A   1      17.634   1.420   7.335  0.00  0.00    -0.329 N 
ATOM      4 HD21 ASN A   1      17.335   0.881   8.173  0.00  0.00    +0.145 HD
ATOM      5 HD22 ASN A   1      17.333   2.409   7.218  0.00  0.00    +0.145 HD
ATOM      6  OD1 ASN A   1      18.779  -0.277   6.486  0.00  0.00    -0.275 OA
ENDBRANCH   1   2
BRANCH   1   7
ATOM      7  CA  ASN A   1      19.121   0.817   3.995  0.00  0.00    +0.142 C 
BRANCH   7   8
ATOM      8  N   ASN A   1      17.975  -0.003   3.570  0.00  0.00    -0.239 NA
ATOM      9  H   ASN A   1      17.466  -0.582   4.268  0.00  0.00    +0.142 HD
ENDBRANCH   7   8
BRANCH   7  10
ATOM     10  C   ASN A   1      20.379  -0.011   4.272  0.00  0.00    +0.225 C 
ATOM     11  O   ASN A   1      21.375   0.524   4.841  0.00  0.00    -0.287 OA
ENDBRANCH   7  10
ENDBRANCH   1   7
TORSDOF 4
REMARK  Name = ../refined-set-2016/4e3g/4e3g_pocket.pdb
REMARK  112 active torsions:
REMARK  status: ('A' for Active; 'I' for Inactive)
REMARK    1  A    between atoms: _1  and  _3
REMARK    2  A    between atoms: _3  and  _4
REMARK    3  A    between atoms: _3  and  _6
REMARK    4  A    between atoms: _6  and  _7
REMARK    5  A    between atoms: _17  and  _19
REMARK    6  A    between atoms: _19  and  _20
REMARK    7  A    between atoms: _19  and  _22
REMARK    8  A    between atoms: _22  and  _23
REMARK    9  A    between atoms: _28  and  _29
REMARK   10  A    between atoms: _31  and  _33
REMARK   11  A    between atoms: _33  and  _34
REMARK   12  A    between atoms: _33  and  _36
REMARK   13  A    between atoms: _36  and  _37
REMARK   14  A    between atoms: _47  and  _49
REMARK   15  A    between atoms: _49  and  _50
REMARK   16  A    between atoms: _49  and  _52
REMARK   17  A    between atoms: _52  and  _53
REMARK   18  A    between atoms: _58  and  _60
REMARK   19  A    between atoms: _60  and  _61
REMARK   20  A    between atoms: _60  and  _63
REMARK   21  A    between atoms: _63  and  _64
REMARK   22  A    between atoms: _69  and  _71
REMARK   23  A    between atoms: _71  and  _72
REMARK   24  A    between atoms: _71  and  _74
REMARK   25  A    between atoms: _74  and  _75
REMARK   26  A    between atoms: _78  and  _80
REMARK   27  A    between atoms: _80  and  _81
REMARK   28  A    between atoms: _80  and  _83
REMARK   29  A    between atoms: _83  and  _84
REMARK   30  A    between atoms: _84  and  _85
REMARK   31  A    between atoms: _90  and  _92
REMARK   32  A    between atoms: _92  and  _93
REMARK   33  A    between atoms: _92  and  _95
REMARK   34  A    between atoms: _95  and  _96
REMARK   35  A    between atoms: _102  and  _104
REMARK   36  A    between atoms: _104  and  _105
REMARK   37  A    between atoms: _104  and  _107
REMARK   38  A    between atoms: _107  and  _108
REMARK   39  A    between atoms: _112  and  ZN_301
REMARK   40  A    between atoms: _113  and  _115
REMARK   41  A    between atoms: _115  and  _116
REMARK   42  A    between atoms: _115  and  _118
REMARK   43  A    between atoms: _118  and  _119
REMARK   44  A    between atoms: _123  and  ZN_301
REMARK   45  A    between atoms: _124  and  _126
REMARK   46  A    between atoms: _126  and  _127
REMARK   47  A    between atoms: _126  and  _129
REMARK   48  A    between atoms: _129  and  _130
REMARK   49  A    between atoms: _130  and  _131
REMARK   50  A    between atoms: _134  and  _136
REMARK   51  A    between atoms: _136  and  _137
REMARK   52  A    between atoms: _136  and  _139
REMARK   53  A    between atoms: _139  and  _140
REMARK   54  A    between atoms: _141  and  ZN_301
REMARK   55  A    between atoms: _145  and  _147
REMARK   56  A    between atoms: _147  and  _148
REMARK   57  A    between atoms: _147  and  _150
REMARK   58  A    between atoms: _150  and  _151
REMARK   59  A    between atoms: _154  and  _156
REMARK   60  A    between atoms: _156  and  _157
REMARK   61  A    between atoms: _156  and  _159
REMARK   62  A    between atoms: _162  and  _164
REMARK   63  A    between atoms: _164  and  _165
REMARK   64  A    between atoms: _164  and  _167
REMARK   65  A    between atoms: _167  and  _168
REMARK   66  A    between atoms: _173  and  _175
REMARK   67  A    between atoms: _175  and  _176
REMARK   68  A    between atoms: _175  and  _178
REMARK   69  A    between atoms: _178  and  _179
REMARK   70  A    between atoms: _185  and  _187
REMARK   71  A    between atoms: _187  and  _188
REMARK   72  A    between atoms: _187  and  _190
REMARK   73  A    between atoms: _193  and  _195
REMARK   74  A    between atoms: _195  and  _196
REMARK   75  A    between atoms: _195  and  _198
REMARK   76  A    between atoms: _198  and  _199
REMARK   77  A    between atoms: _202  and  _204
REMARK   78  A    between atoms: _204  and  _205
REMARK   79  A    between atoms: _204  and  _207
REMARK   80  A    between atoms: _210  and  _212
REMARK   81  A    between atoms: _212  and  _213
REMARK   82  A    between atoms: _212  and  _215
REMARK   83  A    between atoms: _215  and  _216
REMARK   84  A    between atoms: _218  and  _220
REMARK   85  A    between atoms: _220  and  _221
REMARK   86  A    between atoms: _220  and  _223
REMARK   87  A    between atoms: _223  and  _224
REMARK   88  A    between atoms: _227  and  _229
REMARK   89  A    between atoms: _229  and  _230
REMARK   90  A    between atoms: _229  and  _232
REMARK   91  A    between atoms: _232  and  _233
REMARK   92  A    between atoms: _236  and  _238
REMARK   93  A    between atoms: _238  and  _239
REMARK   94  A    between atoms: _238  and  _241
REMARK   95  A    between atoms: _241  and  _242
REMARK   96  A    between atoms: _246  and  _247
REMARK   97  A    between atoms: _253  and  _254
REMARK   98  A    between atoms: _259  and  _261
REMARK   99  A    between atoms: _261  and  _262
REMARK  100  A    between atoms: _261  and  _264
REMARK  101  A    between atoms: _264  and  _265
REMARK  102  A    between atoms: _268  and  _270
REMARK  103  A    between atoms: _270  and  _271
REMARK  104  A    between atoms: _270  and  _273
REMARK  105  A    between atoms: _273  and  _274
REMARK  106  A    between atoms: _277  and  _279
REMARK  107  A    between atoms: _279  and  _280
REMARK  108  A    between atoms: _279  and  _282
REMARK  109  A    between atoms: _285  and  _287
REMARK  110  A    between atoms: _287  and  _288
REMARK  111  A    between atoms: _287  and  _290
REMARK  112  A    between atoms: _290  and  _291
REMARK                            x       y       z     vdW  Elec       q    Type
REMARK                         _______ _______ _______ _____ _____    ______ ____
ROOT
ATOM      1  CB  ASN A   1      12.806   2.573   6.943  0.00  0.00    +0.110 C 
ENDROOT
BRANCH   1   2
ATOM      2  CG  ASN A   1      13.892   2.340   7.998  0.00  0.00    +0.221 C 
ATOM      3  OD1 ASN A   1      13.972   1.275   8.582  0.00  0.00    -0.275 OA
ATOM      4  ND2 ASN A   1      14.795   3.300   8.128  0.00  0.00    -0.329 N 
ATOM      5 HD21 ASN A   1      15.616   3.160   8.750  0.00  0.00    +0.145 HD
ATOM      6 HD22 ASN A   1      14.683   4.193   7.608  0.00  0.00    +0.145 HD
ENDBRANCH   1   2
BRANCH   1   7
ATOM      7  CA  ASN A   1      12.024   1.291   6.594  0.00  0.00    +0.142 C 
BRANCH   7   8
ATOM      8  N   ASN A   1      12.860   0.386   5.884  0.00  0.00    -0.239 NA
ATOM      9  H   ASN A   1      13.428   0.734   5.085  0.00  0.00    +0.142 HD
ENDBRANCH   7   8
BRANCH   7  10
ATOM     10  C   ASN A   1      10.838   1.717   5.801  0.00  0.00    +0.225 C 
ATOM     11  O   ASN A   1      11.040   2.109   4.618  0.00  0.00    -0.287 OA
ENDBRANCH   7  10
ENDBRANCH   1   7
TORSDOF 4
REMARK  Name = ../refined-set-2016/4e3g/4e3g_pocket.pdb
REMARK  112 active torsions:
REMARK  status: ('A' for Active; 'I' for Inactive)
REMARK    1  A    between atoms: _1  and  _3
REMARK    2  A    between atoms: _3  and  _4
REMARK    3  A    between atoms: _3  and  _6
REMARK    4  A    between atoms: _6  and  _7
REMARK    5  A    between atoms: _17  and  _19
REMARK    6  A    between atoms: _19  and  _20
REMARK    7  A    between atoms: _19  and  _22
REMARK    8  A    between atoms: _22  and  _23
REMARK    9  A    between atoms: _28  and  _29
REMARK   10  A    between atoms: _31  and  _33
REMARK   11  A    between atoms: _33  and  _34
REMARK   12  A    between atoms: _33  and  _36
REMARK   13  A    between atoms: _36  and  _37
REMARK   14  A    between atoms: _47  and  _49
REMARK   15  A    between atoms: _49  and  _50
REMARK   16  A    between atoms: _49  and  _52
REMARK   17  A    between atoms: _52  and  _53
REMARK   18  A    between atoms: _58  and  _60
REMARK   19  A    between atoms: _60  and  _61
REMARK   20  A    between atoms: _60  and  _63
REMARK   21  A    between atoms: _63  and  _64
REMARK   22  A    between atoms: _69  and  _71
REMARK   23  A    between atoms: _71  and  _72
REMARK   24  A    between atoms: _71  and  _74
REMARK   25  A    between atoms: _74  and  _75
REMARK   26  A    between atoms: _78  and  _80
REMARK   27  A    between atoms: _80  and  _81
REMARK   28  A    between atoms: _80  and  _83
REMARK   29  A    between atoms: _83  and  _84
REMARK   30  A    between atoms: _84  and  _85
REMARK   31  A    between atoms: _90  and  _92
REMARK   32  A    between atoms: _92  and  _93
REMARK   33  A    between atoms: _92  and  _95
REMARK   34  A    between atoms: _95  and  _96
REMARK   35  A    between atoms: _102  and  _104
REMARK   36  A    between atoms: _104  and  _105
REMARK   37  A    between atoms: _104  and  _107
REMARK   38  A    between atoms: _107  and  _108
REMARK   39  A    between atoms: _112  and  ZN_301
REMARK   40  A    between atoms: _113  and  _115
REMARK   41  A    between atoms: _115  and  _116
REMARK   42  A    between atoms: _115  and  _118
REMARK   43  A    between atoms: _118  and  _119
REMARK   44  A    between atoms: _123  and  ZN_301
REMARK   45  A    between atoms: _124  and  _126
REMARK   46  A    between atoms: _126  and  _127
REMARK   47  A    between atoms: _126  and  _129
REMARK   48  A    between atoms: _129  and  _130
REMARK   49  A    between atoms: _130  and  _131
REMARK   50  A    between atoms: _134  and  _136
REMARK   51  A    between atoms: _136  and  _137
REMARK   52  A    between atoms: _136  and  _139
REMARK   53  A    between atoms: _139  and  _140
REMARK   54  A    between atoms: _141  and  ZN_301
REMARK   55  A    between atoms: _145  and  _147
REMARK   56  A    between atoms: _147  and  _148
REMARK   57  A    between atoms: _147  and  _150
REMARK   58  A    between atoms: _150  and  _151
REMARK   59  A    between atoms: _154  and  _156
REMARK   60  A    between atoms: _156  and  _157
REMARK   61  A    between atoms: _156  and  _159
REMARK   62  A    between atoms: _162  and  _164
REMARK   63  A    between atoms: _164  and  _165
REMARK   64  A    between atoms: _164  and  _167
REMARK   65  A    between atoms: _167  and  _168
REMARK   66  A    between atoms: _173  and  _175
REMARK   67  A    between atoms: _175  and  _176
REMARK   68  A    between atoms: _175  and  _178
REMARK   69  A    between atoms: _178  and  _179
REMARK   70  A    between atoms: _185  and  _187
REMARK   71  A    between atoms: _187  and  _188
REMARK   72  A    between atoms: _187  and  _190
REMARK   73  A    between atoms: _193  and  _195
REMARK   74  A    between atoms: _195  and  _196
REMARK   75  A    between atoms: _195  and  _198
REMARK   76  A    between atoms: _198  and  _199
REMARK   77  A    between atoms: _202  and  _204
REMARK   78  A    between atoms: _204  and  _205
REMARK   79  A    between atoms: _204  and  _207
REMARK   80  A    between atoms: _210  and  _212
REMARK   81  A    between atoms: _212  and  _213
REMARK   82  A    between atoms: _212  and  _215
REMARK   83  A    between atoms: _215  and  _216
REMARK   84  A    between atoms: _218  and  _220
REMARK   85  A    between atoms: _220  and  _221
REMARK   86  A    between atoms: _220  and  _223
REMARK   87  A    between atoms: _223  and  _224
REMARK   88  A    between atoms: _227  and  _229
REMARK   89  A    between atoms: _229  and  _230
REMARK   90  A    between atoms: _229  and  _232
REMARK   91  A    between atoms: _232  and  _233
REMARK   92  A    between atoms: _236  and  _238
REMARK   93  A    between atoms: _238  and  _239
REMARK   94  A    between atoms: _238  and  _241
REMARK   95  A    between atoms: _241  and  _242
REMARK   96  A    between atoms: _246  and  _247
REMARK   97  A    between atoms: _253  and  _254
REMARK   98  A    between atoms: _259  and  _261
REMARK   99  A    between atoms: _261  and  _262
REMARK  100  A    between atoms: _261  and  _264
REMARK  101  A    between atoms: _264  and  _265
REMARK  102  A    between atoms: _268  and  _270
REMARK  103  A    between atoms: _270  and  _271
REMARK  104  A    between atoms: _270  and  _273
REMARK  105  A    between atoms: _273  and  _274
REMARK  106  A    between atoms: _277  and  _279
REMARK  107  A    between atoms: _279  and  _280
REMARK  108  A    between atoms: _279  and  _282
REMARK  109  A    between atoms: _285  and  _287
REMARK  110  A    between atoms: _287  and  _288
REMARK  111  A    between atoms: _287  and  _290
REMARK  112  A    between atoms: _290  and  _291
REMARK                            x       y       z     vdW  Elec       q    Type
REMARK                         _______ _______ _______ _____ _____    ______ ____
ROOT
ATOM      1 ZN   UNK A   4      14.560  -1.774  15.232  0.00  0.00    +0.000 Zn
ATOM      2  O   UNK A   4      16.344  -0.986  15.727  0.00  0.00    +0.000 OA
ENDROOT
BRANCH   1   3
ATOM      3  N   UNK A   4      15.191  -3.602  14.648  0.00  0.00    +0.000 N 
ATOM      4  C   UNK A   4      14.454  -4.774  14.709  0.00  0.00    +0.000 A 
ATOM      5  C   UNK A   4      15.248  -5.760  14.276  0.00  0.00    +0.000 A 
ATOM      6  N   UNK A   4      16.443  -5.196  13.873  0.00  0.00    +0.000 NA
ATOM      7  C   UNK A   4      16.412  -3.922  14.259  0.00  0.00    +0.000 A 
BRANCH   5   8
ATOM      8  C   UNK A   4      14.944  -7.171  14.004  0.00  0.00    +0.000 C 
BRANCH   8   9
ATOM      9  C   UNK A   4      14.312  -7.388  12.628  0.00  0.00    +0.000 C 
BRANCH   9  10
ATOM     10  C   UNK A   4      13.875  -8.851  12.514  0.00  0.00    +0.000 C 
ATOM     11  O   UNK A   1      12.769  -9.248  13.013  0.00  0.00    +0.000 OA
ENDBRANCH   9  10
BRANCH   9  12
ATOM     12  N   UNK A   4      13.118  -6.553  12.456  0.00  0.00    +0.000 NA
ATOM     13  H   UNK A   1      12.311  -6.721  13.090  0.00  0.00    +0.000 HD
ENDBRANCH   9  12
ENDBRANCH   8   9
ENDBRANCH   5   8
ENDBRANCH   1   3
BRANCH   1  14
ATOM     14  N   UNK A   4      13.151  -2.343  16.562  0.00  0.00    +0.000 N 
ATOM     15  C   UNK A   4      13.421  -3.247  17.482  0.00  0.00    +0.000 A 
ATOM     16  N   UNK A   4      12.300  -3.645  18.051  0.00  0.00    +0.000 NA
ATOM     17  C   UNK A   4      11.242  -2.951  17.487  0.00  0.00    +0.000 A 
ATOM     18  C   UNK A   4      11.774  -2.143  16.545  0.00  0.00    +0.000 A 
BRANCH  18  19
ATOM     19  C   UNK A   4      11.058  -1.166  15.654  0.00  0.00    +0.000 C 
BRANCH  19  20
ATOM     20  C   UNK A   4       9.535  -1.447  15.662  0.00  0.00    +0.000 C 
BRANCH  20  21
ATOM     21  C   UNK A   4       8.860  -0.303  14.952  0.00  0.00    +0.000 C 
ATOM     22  N   LEU A   2       7.844   0.278  15.583  0.00  0.00    +0.000 N 
ATOM     23  H   LEU A   2       7.465  -0.163  16.445  0.00  0.00    +0.000 HD
ATOM     24  O   UNK A   4       9.251   0.051  13.795  0.00  0.00    +0.000 OA
BRANCH  22  25
ATOM     25  CA  LEU A   2       7.234   1.545  15.087  0.00  0.00    +0.000 C 
BRANCH  25  26
ATOM     26  C   LEU A   2       7.850   2.676  15.895  0.00  0.00    +0.000 C 
ATOM     27  O   LEU A   2       7.686   2.738  17.126  0.00  0.00    +0.000 OA
ATOM     28  N   VAL A   3       8.632   3.524  15.209  0.00  0.00    +0.000 N 
ATOM     29  H   VAL A   3       8.672   3.424  14.175  0.00  0.00    +0.000 HD
BRANCH  28  30
ATOM     30  CA  VAL A   3       9.437   4.588  15.834  0.00  0.00    +0.000 C 
BRANCH  30  31
ATOM     31  C   VAL A   3       8.718   5.892  15.837  0.00  0.00    +0.000 C 
ATOM     32  N   UNK A   4       8.663   6.510  17.025  0.00  0.00    +0.000 N 
ATOM     33  H   UNK A   4       9.149   6.084  17.840  0.00  0.00    +0.000 HD
ATOM     34  O   VAL A   3       8.254   6.341  14.762  0.00  0.00    +0.000 OA
BRANCH  32  35
ATOM     35  C   UNK A   4       7.932   7.779  17.208  0.00  0.00    +0.000 C 
BRANCH  35  36
ATOM     36  C   UNK A   4       8.811   8.788  17.930  0.00  0.00    +0.000 C 
ATOM     37  O   UNK A   4       9.515   8.416  18.854  0.00  0.00    +0.000 OA
ENDBRANCH  35  36
BRANCH  35  38
ATOM     38  C   UNK A   4       6.615   7.648  18.075  0.00  0.00    +0.000 C 
BRANCH  38  39
ATOM     39  C   UNK A   4       5.735   6.505  17.659  0.00  0.00    +0.000 A 
ATOM     40  N   UNK A   4       6.044   5.173  17.898  0.00  0.00    +0.000 NA
ATOM     41  C   UNK A   4       5.038   4.405  17.491  0.00  0.00    +0.000 A 
ATOM     42  N   UNK A   4       4.105   5.191  16.958  0.00  0.00    +0.000 NA
ATOM     43  C   UNK A   4       4.487   6.515  17.129  0.00  0.00    +0.000 A 
ENDBRANCH  38  39
ENDBRANCH  35  38
ENDBRANCH  32  35
ENDBRANCH  30  31
BRANCH  30  44
ATOM     44  CB  VAL A   3      10.768   4.692  15.083  0.00  0.00    +0.000 C 
ATOM     45  CG2 VAL A   3      11.701   5.760  15.785  0.00  0.00    +0.000 C 
ATOM     46  CG1 VAL A   3      11.480   3.330  15.026  0.00  0.00    +0.000 C 
ENDBRANCH  30  44
ENDBRANCH  28  30
ENDBRANCH  25  26
BRANCH  25  47
ATOM     47  CB  LEU A   2       5.699   1.453  15.311  0.00  0.00    +0.000 C 
BRANCH  47  48
ATOM     48  CG  LEU A   2       5.050   0.339  14.433  0.00  0.00    +0.000 C 
ATOM     49  CD2 LEU A   2       4.285  -0.628  15.338  0.00  0.00    +0.000 C 
ATOM     50  CD1 LEU A   2       4.080   0.872  13.298  0.00  0.00    +0.000 C 
ENDBRANCH  47  48
ENDBRANCH  25  47
ENDBRANCH  22  25
ENDBRANCH  20  21
BRANCH  20  51
ATOM     51  N   UNK A   4       9.277  -2.671  14.917  0.00  0.00    +0.000 NA
ATOM     52  H   UNK A   1       9.600  -2.718  13.930  0.00  0.00    +0.000 HD
ENDBRANCH  20  51
ENDBRANCH  19  20
ENDBRANCH  18  19
ENDBRANCH   1  14
BRANCH   1  55
ATOM     53  C   UNK A   4      12.981  -0.734  11.614  0.00  0.00    +0.000 A 
ATOM     54  C   UNK A   4      13.618  -1.562  12.475  0.00  0.00    +0.000 A 
ATOM     55  N   UNK A   4      13.878  -0.850  13.611  0.00  0.00    +0.000 N 
ATOM     56  C   UNK A   4      13.402   0.399  13.455  0.00  0.00    +0.000 A 
ATOM     57  N   UNK A   4      12.795   0.481  12.254  0.00  0.00    +0.000 NA
BRANCH  53  58
ATOM     58  C   UNK A   4      12.409  -1.022  10.263  0.00  0.00    +0.000 C 
BRANCH  58  59
ATOM     59  C   UNK A   4      10.943  -1.546  10.328  0.00  0.00    +0.000 C 
BRANCH  59  61
ATOM     60  C   VAL A   3       9.577   0.495  10.230  0.00  0.00    +0.000 C 
ATOM     61  N   UNK A   4      10.062  -0.560  10.890  0.00  0.00    +0.000 N 
ATOM     62  H   UNK A   4       9.781  -0.676  11.885  0.00  0.00    +0.000 HD
ATOM     63  O   VAL A   3       9.849   0.715   9.060  0.00  0.00    +0.000 OA
BRANCH  60  64
ATOM     64  CA  VAL A   3       8.674   1.382  11.017  0.00  0.00    +0.000 C 
BRANCH  64  67
ATOM     65  C   LEU A   2       8.698   3.781  11.101  0.00  0.00    +0.000 C 
ATOM     66  O   LEU A   2       8.624   3.779  12.352  0.00  0.00    +0.000 OA
ATOM     67  N   VAL A   3       8.510   2.696  10.355  0.00  0.00    +0.000 N 
ATOM     68  H   VAL A   3       8.258   2.768   9.348  0.00  0.00    +0.000 HD
BRANCH  65  69
ATOM     69  CA  LEU A   2       8.939   5.050  10.380  0.00  0.00    +0.000 C 
BRANCH  69  71
ATOM     70  C   UNK A   1       8.481   7.419  10.735  0.00  0.00    +0.000 C 
ATOM     71  N   LEU A   2       8.597   6.160  11.245  0.00  0.00    +0.000 N 
ATOM     72  H   LEU A   2       8.439   5.996  12.260  0.00  0.00    +0.000 HD
ATOM     73  O   UNK A   1       8.582   7.635   9.520  0.00  0.00    +0.000 OA
BRANCH  70  74
ATOM     74  C   UNK A   1       8.155   8.566  11.706  0.00  0.00    +0.000 C 
BRANCH  74  75
ATOM     75  C   UNK A   1       9.438   9.266  12.231  0.00  0.00    +0.000 C 
ATOM     76  C   UNK A   1      10.270   8.390  13.207  0.00  0.00    +0.000 C 
BRANCH  75  77
ATOM     77  C   UNK A   1      10.364   9.689  11.073  0.00  0.00    +0.000 C 
ATOM     78  C   UNK A   1      11.483  10.703  11.503  0.00  0.00    +0.000 C 
ENDBRANCH  75  77
ENDBRANCH  74  75
BRANCH  74  79
ATOM     79  N   UNK A   1       7.292   8.224  12.786  0.00  0.00    +0.000 NA
ATOM     80  H   UNK A   1       7.659   7.609  13.540  0.00  0.00    +0.000 HD
ENDBRANCH  74  79
ENDBRANCH  70  74
ENDBRANCH  69  71
BRANCH  69  81
ATOM     81  CB  LEU A   2      10.412   5.047   9.943  0.00  0.00    +0.000 C 
BRANCH  81  82
ATOM     82  CG  LEU A   2      11.453   5.179  11.031  0.00  0.00    +0.000 C 
BRANCH  82  83
ATOM     83  CD  LEU A   2      12.237   3.910  11.177  0.00  0.00    +0.000 C 
ATOM     84  OE1 LEU A   2      11.685   2.829  11.286  0.00  0.00    +0.000 OA
ATOM     85  NE2 LEU A   2      13.562   4.010  11.169  0.00  0.00    +0.000 N 
ATOM     86 HE21 LEU A   2      14.149   3.156  11.257  0.00  0.00    +0.000 HD
ATOM     87 HE22 LEU A   2      14.013   4.943  11.075  0.00  0.00    +0.000 HD
ENDBRANCH  82  83
ENDBRANCH  81  82
ENDBRANCH  69  81
ENDBRANCH  65  69
ENDBRANCH  64  67
BRANCH  64  88
ATOM     88  CB  VAL A   3       7.287   0.693  11.320  0.00  0.00    +0.000 C 
BRANCH  88  89
ATOM     89  CG  VAL A   3       6.520   0.229  10.099  0.00  0.00    +0.000 A 
ATOM     90  CD2 VAL A   3       5.352   0.964   9.677  0.00  0.00    +0.000 A 
ATOM     91  CE2 VAL A   3       4.624   0.447   8.537  0.00  0.00    +0.000 A 
ATOM     92  CZ  VAL A   3       5.102  -0.744   7.870  0.00  0.00    +0.000 A 
ATOM     93  CE1 VAL A   3       6.231  -1.440   8.297  0.00  0.00    +0.000 A 
ATOM     94  CD1 VAL A   3       6.935  -0.946   9.428  0.00  0.00    +0.000 A 
ENDBRANCH  88  89
ENDBRANCH  64  88
ENDBRANCH  60  64
ENDBRANCH  59  61
BRANCH  59  95
ATOM     95  C   UNK A   4      10.897  -2.773  11.186  0.00  0.00    +0.000 C 
ATOM     96  O   UNK A   4      10.306  -2.770  12.249  0.00  0.00    +0.000 OA
ENDBRANCH  59  95
ENDBRANCH  58  59
ENDBRANCH  53  58
ENDBRANCH   1  55
TORSDOF 39
REMARK  Name = ../refined-set-2016/4e3g/4e3g_pocket.pdb
REMARK  112 active torsions:
REMARK  status: ('A' for Active; 'I' for Inactive)
REMARK    1  A    between atoms: _1  and  _3
REMARK    2  A    between atoms: _3  and  _4
REMARK    3  A    between atoms: _3  and  _6
REMARK    4  A    between atoms: _6  and  _7
REMARK    5  A    between atoms: _17  and  _19
REMARK    6  A    between atoms: _19  and  _20
REMARK    7  A    between atoms: _19  and  _22
REMARK    8  A    between atoms: _22  and  _23
REMARK    9  A    between atoms: _28  and  _29
REMARK   10  A    between atoms: _31  and  _33
REMARK   11  A    between atoms: _33  and  _34
REMARK   12  A    between atoms: _33  and  _36
REMARK   13  A    between atoms: _36  and  _37
REMARK   14  A    between atoms: _47  and  _49
REMARK   15  A    between atoms: _49  and  _50
REMARK   16  A    between atoms: _49  and  _52
REMARK   17  A    between atoms: _52  and  _53
REMARK   18  A    between atoms: _58  and  _60
REMARK   19  A    between atoms: _60  and  _61
REMARK   20  A    between atoms: _60  and  _63
REMARK   21  A    between atoms: _63  and  _64
REMARK   22  A    between atoms: _69  and  _71
REMARK   23  A    between atoms: _71  and  _72
REMARK   24  A    between atoms: _71  and  _74
REMARK   25  A    between atoms: _74  and  _75
REMARK   26  A    between atoms: _78  and  _80
REMARK   27  A    between atoms: _80  and  _81
REMARK   28  A    between atoms: _80  and  _83
REMARK   29  A    between atoms: _83  and  _84
REMARK   30  A    between atoms: _84  and  _85
REMARK   31  A    between atoms: _90  and  _92
REMARK   32  A    between atoms: _92  and  _93
REMARK   33  A    between atoms: _92  and  _95
REMARK   34  A    between atoms: _95  and  _96
REMARK   35  A    between atoms: _102  and  _104
REMARK   36  A    between atoms: _104  and  _105
REMARK   37  A    between atoms: _104  and  _107
REMARK   38  A    between atoms: _107  and  _108
REMARK   39  A    between atoms: _112  and  ZN_301
REMARK   40  A    between atoms: _113  and  _115
REMARK   41  A    between atoms: _115  and  _116
REMARK   42  A    between atoms: _115  and  _118
REMARK   43  A    between atoms: _118  and  _119
REMARK   44  A    between atoms: _123  and  ZN_301
REMARK   45  A    between atoms: _124  and  _126
REMARK   46  A    between atoms: _126  and  _127
REMARK   47  A    between atoms: _126  and  _129
REMARK   48  A    between atoms: _129  and  _130
REMARK   49  A    between atoms: _130  and  _131
REMARK   50  A    between atoms: _134  and  _136
REMARK   51  A    between atoms: _136  and  _137
REMARK   52  A    between atoms: _136  and  _139
REMARK   53  A    between atoms: _139  and  _140
REMARK   54  A    between atoms: _141  and  ZN_301
REMARK   55  A    between atoms: _145  and  _147
REMARK   56  A    between atoms: _147  and  _148
REMARK   57  A    between atoms: _147  and  _150
REMARK   58  A    between atoms: _150  and  _151
REMARK   59  A    between atoms: _154  and  _156
REMARK   60  A    between atoms: _156  and  _157
REMARK   61  A    between atoms: _156  and  _159
REMARK   62  A    between atoms: _162  and  _164
REMARK   63  A    between atoms: _164  and  _165
REMARK   64  A    between atoms: _164  and  _167
REMARK   65  A    between atoms: _167  and  _168
REMARK   66  A    between atoms: _173  and  _175
REMARK   67  A    between atoms: _175  and  _176
REMARK   68  A    between atoms: _175  and  _178
REMARK   69  A    between atoms: _178  and  _179
REMARK   70  A    between atoms: _185  and  _187
REMARK   71  A    between atoms: _187  and  _188
REMARK   72  A    between atoms: _187  and  _190
REMARK   73  A    between atoms: _193  and  _195
REMARK   74  A    between atoms: _195  and  _196
REMARK   75  A    between atoms: _195  and  _198
REMARK   76  A    between atoms: _198  and  _199
REMARK   77  A    between atoms: _202  and  _204
REMARK   78  A    between atoms: _204  and  _205
REMARK   79  A    between atoms: _204  and  _207
REMARK   80  A    between atoms: _210  and  _212
REMARK   81  A    between atoms: _212  and  _213
REMARK   82  A    between atoms: _212  and  _215
REMARK   83  A    between atoms: _215  and  _216
REMARK   84  A    between atoms: _218  and  _220
REMARK   85  A    between atoms: _220  and  _221
REMARK   86  A    between atoms: _220  and  _223
REMARK   87  A    between atoms: _223  and  _224
REMARK   88  A    between atoms: _227  and  _229
REMARK   89  A    between atoms: _229  and  _230
REMARK   90  A    between atoms: _229  and  _232
REMARK   91  A    between atoms: _232  and  _233
REMARK   92  A    between atoms: _236  and  _238
REMARK   93  A    between atoms: _238  and  _239
REMARK   94  A    between atoms: _238  and  _241
REMARK   95  A    between atoms: _241  and  _242
REMARK   96  A    between atoms: _246  and  _247
REMARK   97  A    between atoms: _253  and  _254
REMARK   98  A    between atoms: _259  and  _261
REMARK   99  A    between atoms: _261  and  _262
REMARK  100  A    between atoms: _261  and  _264
REMARK  101  A    between atoms: _264  and  _265
REMARK  102  A    between atoms: _268  and  _270
REMARK  103  A    between atoms: _270  and  _271
REMARK  104  A    between atoms: _270  and  _273
REMARK  105  A    between atoms: _273  and  _274
REMARK  106  A    between atoms: _277  and  _279
REMARK  107  A    between atoms: _279  and  _280
REMARK  108  A    between atoms: _279  and  _282
REMARK  109  A    between atoms: _285  and  _287
REMARK  110  A    between atoms: _287  and  _288
REMARK  111  A    between atoms: _287  and  _290
REMARK  112  A    between atoms: _290  and  _291
REMARK                            x       y       z     vdW  Elec       q    Type
REMARK                         _______ _______ _______ _____ _____    ______ ____
ROOT
ATOM      1  CA  GLU A   1      15.587  -8.460  19.665  0.00  0.00    +0.134 C 
ENDROOT
BRANCH   1   2
ATOM      2  N   GLU A   1      14.555  -9.128  18.821  0.00  0.00    -0.239 NA
ATOM      3  H   GLU A   1      13.713  -8.593  18.529  0.00  0.00    +0.142 HD
ENDBRANCH   1   2
BRANCH   1   4
ATOM      4  C   GLU A   1      15.212  -8.533  21.137  0.00  0.00    +0.224 C 
ATOM      5  O   GLU A   1      15.997  -9.130  21.908  0.00  0.00    -0.287 OA
ENDBRANCH   1   4
BRANCH   1   6
ATOM      6  CB  GLU A   1      15.642  -6.989  19.213  0.00  0.00    +0.037 C 
BRANCH   6   7
ATOM      7  CG  GLU A   1      16.150  -6.885  17.718  0.00  0.00    +0.116 C 
BRANCH   7   8
ATOM      8  CD  GLU A   1      16.757  -5.562  17.408  0.00  0.00    +0.365 C 
ATOM      9  OE2 GLU A   1      16.166  -4.529  17.795  0.00  0.00    -0.246 OA
ATOM     10  OE1 GLU A   1      17.819  -5.578  16.782  0.00  0.00    -0.246 OA
ENDBRANCH   7   8
ENDBRANCH   6   7
ENDBRANCH   1   6
TORSDOF 5
REMARK  Name = ../refined-set-2016/4e3g/4e3g_pocket.pdb
REMARK  112 active torsions:
REMARK  status: ('A' for Active; 'I' for Inactive)
REMARK    1  A    between atoms: _1  and  _3
REMARK    2  A    between atoms: _3  and  _4
REMARK    3  A    between atoms: _3  and  _6
REMARK    4  A    between atoms: _6  and  _7
REMARK    5  A    between atoms: _17  and  _19
REMARK    6  A    between atoms: _19  and  _20
REMARK    7  A    between atoms: _19  and  _22
REMARK    8  A    between atoms: _22  and  _23
REMARK    9  A    between atoms: _28  and  _29
REMARK   10  A    between atoms: _31  and  _33
REMARK   11  A    between atoms: _33  and  _34
REMARK   12  A    between atoms: _33  and  _36
REMARK   13  A    between atoms: _36  and  _37
REMARK   14  A    between atoms: _47  and  _49
REMARK   15  A    between atoms: _49  and  _50
REMARK   16  A    between atoms: _49  and  _52
REMARK   17  A    between atoms: _52  and  _53
REMARK   18  A    between atoms: _58  and  _60
REMARK   19  A    between atoms: _60  and  _61
REMARK   20  A    between atoms: _60  and  _63
REMARK   21  A    between atoms: _63  and  _64
REMARK   22  A    between atoms: _69  and  _71
REMARK   23  A    between atoms: _71  and  _72
REMARK   24  A    between atoms: _71  and  _74
REMARK   25  A    between atoms: _74  and  _75
REMARK   26  A    between atoms: _78  and  _80
REMARK   27  A    between atoms: _80  and  _81
REMARK   28  A    between atoms: _80  and  _83
REMARK   29  A    between atoms: _83  and  _84
REMARK   30  A    between atoms: _84  and  _85
REMARK   31  A    between atoms: _90  and  _92
REMARK   32  A    between atoms: _92  and  _93
REMARK   33  A    between atoms: _92  and  _95
REMARK   34  A    between atoms: _95  and  _96
REMARK   35  A    between atoms: _102  and  _104
REMARK   36  A    between atoms: _104  and  _105
REMARK   37  A    between atoms: _104  and  _107
REMARK   38  A    between atoms: _107  and  _108
REMARK   39  A    between atoms: _112  and  ZN_301
REMARK   40  A    between atoms: _113  and  _115
REMARK   41  A    between atoms: _115  and  _116
REMARK   42  A    between atoms: _115  and  _118
REMARK   43  A    between atoms: _118  and  _119
REMARK   44  A    between atoms: _123  and  ZN_301
REMARK   45  A    between atoms: _124  and  _126
REMARK   46  A    between atoms: _126  and  _127
REMARK   47  A    between atoms: _126  and  _129
REMARK   48  A    between atoms: _129  and  _130
REMARK   49  A    between atoms: _130  and  _131
REMARK   50  A    between atoms: _134  and  _136
REMARK   51  A    between atoms: _136  and  _137
REMARK   52  A    between atoms: _136  and  _139
REMARK   53  A    between atoms: _139  and  _140
REMARK   54  A    between atoms: _141  and  ZN_301
REMARK   55  A    between atoms: _145  and  _147
REMARK   56  A    between atoms: _147  and  _148
REMARK   57  A    between atoms: _147  and  _150
REMARK   58  A    between atoms: _150  and  _151
REMARK   59  A    between atoms: _154  and  _156
REMARK   60  A    between atoms: _156  and  _157
REMARK   61  A    between atoms: _156  and  _159
REMARK   62  A    between atoms: _162  and  _164
REMARK   63  A    between atoms: _164  and  _165
REMARK   64  A    between atoms: _164  and  _167
REMARK   65  A    between atoms: _167  and  _168
REMARK   66  A    between atoms: _173  and  _175
REMARK   67  A    between atoms: _175  and  _176
REMARK   68  A    between atoms: _175  and  _178
REMARK   69  A    between atoms: _178  and  _179
REMARK   70  A    between atoms: _185  and  _187
REMARK   71  A    between atoms: _187  and  _188
REMARK   72  A    between atoms: _187  and  _190
REMARK   73  A    between atoms: _193  and  _195
REMARK   74  A    between atoms: _195  and  _196
REMARK   75  A    between atoms: _195  and  _198
REMARK   76  A    between atoms: _198  and  _199
REMARK   77  A    between atoms: _202  and  _204
REMARK   78  A    between atoms: _204  and  _205
REMARK   79  A    between atoms: _204  and  _207
REMARK   80  A    between atoms: _210  and  _212
REMARK   81  A    between atoms: _212  and  _213
REMARK   82  A    between atoms: _212  and  _215
REMARK   83  A    between atoms: _215  and  _216
REMARK   84  A    between atoms: _218  and  _220
REMARK   85  A    between atoms: _220  and  _221
REMARK   86  A    between atoms: _220  and  _223
REMARK   87  A    between atoms: _223  and  _224
REMARK   88  A    between atoms: _227  and  _229
REMARK   89  A    between atoms: _229  and  _230
REMARK   90  A    between atoms: _229  and  _232
REMARK   91  A    between atoms: _232  and  _233
REMARK   92  A    between atoms: _236  and  _238
REMARK   93  A    between atoms: _238  and  _239
REMARK   94  A    between atoms: _238  and  _241
REMARK   95  A    between atoms: _241  and  _242
REMARK   96  A    between atoms: _246  and  _247
REMARK   97  A    between atoms: _253  and  _254
REMARK   98  A    between atoms: _259  and  _261
REMARK   99  A    between atoms: _261  and  _262
REMARK  100  A    between atoms: _261  and  _264
REMARK  101  A    between atoms: _264  and  _265
REMARK  102  A    between atoms: _268  and  _270
REMARK  103  A    between atoms: _270  and  _271
REMARK  104  A    between atoms: _270  and  _273
REMARK  105  A    between atoms: _273  and  _274
REMARK  106  A    between atoms: _277  and  _279
REMARK  107  A    between atoms: _279  and  _280
REMARK  108  A    between atoms: _279  and  _282
REMARK  109  A    between atoms: _285  and  _287
REMARK  110  A    between atoms: _287  and  _288
REMARK  111  A    between atoms: _287  and  _290
REMARK  112  A    between atoms: _290  and  _291
REMARK                            x       y       z     vdW  Elec       q    Type
REMARK                         _______ _______ _______ _____ _____    ______ ____
ROOT
ATOM      1  CB  PHE A   1      13.417  12.779  14.113  0.00  0.00    +0.051 C 
ENDROOT
BRANCH   1   2
ATOM      2  CG  PHE A   1      14.130  11.494  14.426  0.00  0.00    -0.020 A 
ATOM      3  CD2 PHE A   1      13.392  10.460  14.937  0.00  0.00    -0.004 A 
ATOM      4  CE2 PHE A   1      14.015   9.222  15.244  0.00  0.00    -0.000 A 
ATOM      5  CZ  PHE A   1      15.384   9.062  15.025  0.00  0.00    -0.000 A 
ATOM      6  CE1 PHE A   1      16.118  10.087  14.483  0.00  0.00    -0.000 A 
ATOM      7  CD1 PHE A   1      15.472  11.336  14.167  0.00  0.00    -0.004 A 
ENDBRANCH   1   2
BRANCH   1   8
ATOM      8  CA  PHE A   1      13.381  13.783  15.289  0.00  0.00    +0.137 C 
BRANCH   8   9
ATOM      9  N   PHE A   1      12.658  15.015  14.870  0.00  0.00    -0.239 NA
ATOM     10  H   PHE A   1      12.345  15.128  13.885  0.00  0.00    +0.142 HD
ENDBRANCH   8   9
BRANCH   8  11
ATOM     11  C   PHE A   1      14.774  14.102  15.696  0.00  0.00    +0.224 C 
ATOM     12  O   PHE A   1      15.248  13.549  16.683  0.00  0.00    -0.287 OA
ENDBRANCH   8  11
ENDBRANCH   1   8
TORSDOF 4
REMARK  Name = ../refined-set-2016/4e3g/4e3g_pocket.pdb
REMARK  112 active torsions:
REMARK  status: ('A' for Active; 'I' for Inactive)
REMARK    1  A    between atoms: _1  and  _3
REMARK    2  A    between atoms: _3  and  _4
REMARK    3  A    between atoms: _3  and  _6
REMARK    4  A    between atoms: _6  and  _7
REMARK    5  A    between atoms: _17  and  _19
REMARK    6  A    between atoms: _19  and  _20
REMARK    7  A    between atoms: _19  and  _22
REMARK    8  A    between atoms: _22  and  _23
REMARK    9  A    between atoms: _28  and  _29
REMARK   10  A    between atoms: _31  and  _33
REMARK   11  A    between atoms: _33  and  _34
REMARK   12  A    between atoms: _33  and  _36
REMARK   13  A    between atoms: _36  and  _37
REMARK   14  A    between atoms: _47  and  _49
REMARK   15  A    between atoms: _49  and  _50
REMARK   16  A    between atoms: _49  and  _52
REMARK   17  A    between atoms: _52  and  _53
REMARK   18  A    between atoms: _58  and  _60
REMARK   19  A    between atoms: _60  and  _61
REMARK   20  A    between atoms: _60  and  _63
REMARK   21  A    between atoms: _63  and  _64
REMARK   22  A    between atoms: _69  and  _71
REMARK   23  A    between atoms: _71  and  _72
REMARK   24  A    between atoms: _71  and  _74
REMARK   25  A    between atoms: _74  and  _75
REMARK   26  A    between atoms: _78  and  _80
REMARK   27  A    between atoms: _80  and  _81
REMARK   28  A    between atoms: _80  and  _83
REMARK   29  A    between atoms: _83  and  _84
REMARK   30  A    between atoms: _84  and  _85
REMARK   31  A    between atoms: _90  and  _92
REMARK   32  A    between atoms: _92  and  _93
REMARK   33  A    between atoms: _92  and  _95
REMARK   34  A    between atoms: _95  and  _96
REMARK   35  A    between atoms: _102  and  _104
REMARK   36  A    between atoms: _104  and  _105
REMARK   37  A    between atoms: _104  and  _107
REMARK   38  A    between atoms: _107  and  _108
REMARK   39  A    between atoms: _112  and  ZN_301
REMARK   40  A    between atoms: _113  and  _115
REMARK   41  A    between atoms: _115  and  _116
REMARK   42  A    between atoms: _115  and  _118
REMARK   43  A    between atoms: _118  and  _119
REMARK   44  A    between atoms: _123  and  ZN_301
REMARK   45  A    between atoms: _124  and  _126
REMARK   46  A    between atoms: _126  and  _127
REMARK   47  A    between atoms: _126  and  _129
REMARK   48  A    between atoms: _129  and  _130
REMARK   49  A    between atoms: _130  and  _131
REMARK   50  A    between atoms: _134  and  _136
REMARK   51  A    between atoms: _136  and  _137
REMARK   52  A    between atoms: _136  and  _139
REMARK   53  A    between atoms: _139  and  _140
REMARK   54  A    between atoms: _141  and  ZN_301
REMARK   55  A    between atoms: _145  and  _147
REMARK   56  A    between atoms: _147  and  _148
REMARK   57  A    between atoms: _147  and  _150
REMARK   58  A    between atoms: _150  and  _151
REMARK   59  A    between atoms: _154  and  _156
REMARK   60  A    between atoms: _156  and  _157
REMARK   61  A    between atoms: _156  and  _159
REMARK   62  A    between atoms: _162  and  _164
REMARK   63  A    between atoms: _164  and  _165
REMARK   64  A    between atoms: _164  and  _167
REMARK   65  A    between atoms: _167  and  _168
REMARK   66  A    between atoms: _173  and  _175
REMARK   67  A    between atoms: _175  and  _176
REMARK   68  A    between atoms: _175  and  _178
REMARK   69  A    between atoms: _178  and  _179
REMARK   70  A    between atoms: _185  and  _187
REMARK   71  A    between atoms: _187  and  _188
REMARK   72  A    between atoms: _187  and  _190
REMARK   73  A    between atoms: _193  and  _195
REMARK   74  A    between atoms: _195  and  _196
REMARK   75  A    between atoms: _195  and  _198
REMARK   76  A    between atoms: _198  and  _199
REMARK   77  A    between atoms: _202  and  _204
REMARK   78  A    between atoms: _204  and  _205
REMARK   79  A    between atoms: _204  and  _207
REMARK   80  A    between atoms: _210  and  _212
REMARK   81  A    between atoms: _212  and  _213
REMARK   82  A    between atoms: _212  and  _215
REMARK   83  A    between atoms: _215  and  _216
REMARK   84  A    between atoms: _218  and  _220
REMARK   85  A    between atoms: _220  and  _221
REMARK   86  A    between atoms: _220  and  _223
REMARK   87  A    between atoms: _223  and  _224
REMARK   88  A    between atoms: _227  and  _229
REMARK   89  A    between atoms: _229  and  _230
REMARK   90  A    between atoms: _229  and  _232
REMARK   91  A    between atoms: _232  and  _233
REMARK   92  A    between atoms: _236  and  _238
REMARK   93  A    between atoms: _238  and  _239
REMARK   94  A    between atoms: _238  and  _241
REMARK   95  A    between atoms: _241  and  _242
REMARK   96  A    between atoms: _246  and  _247
REMARK   97  A    between atoms: _253  and  _254
REMARK   98  A    between atoms: _259  and  _261
REMARK   99  A    between atoms: _261  and  _262
REMARK  100  A    between atoms: _261  and  _264
REMARK  101  A    between atoms: _264  and  _265
REMARK  102  A    between atoms: _268  and  _270
REMARK  103  A    between atoms: _270  and  _271
REMARK  104  A    between atoms: _270  and  _273
REMARK  105  A    between atoms: _273  and  _274
REMARK  106  A    between atoms: _277  and  _279
REMARK  107  A    between atoms: _279  and  _280
REMARK  108  A    between atoms: _279  and  _282
REMARK  109  A    between atoms: _285  and  _287
REMARK  110  A    between atoms: _287  and  _288
REMARK  111  A    between atoms: _287  and  _290
REMARK  112  A    between atoms: _290  and  _291
REMARK                            x       y       z     vdW  Elec       q    Type
REMARK                         _______ _______ _______ _____ _____    ______ ____
ROOT
ATOM      1  CA  VAL A   1      17.406  12.214  19.977  0.00  0.00    +0.133 C 
ENDROOT
BRANCH   1   2
ATOM      2  CB  VAL A   1      17.887  11.313  18.793  0.00  0.00    +0.023 C 
ATOM      3  CG2 VAL A   1      16.730  10.553  18.283  0.00  0.00    +0.002 C 
ATOM      4  CG1 VAL A   1      18.567  12.161  17.688  0.00  0.00    +0.002 C 
ENDBRANCH   1   2
BRANCH   1   5
ATOM      5  N   VAL A   1      16.285  13.124  19.552  0.00  0.00    -0.239 NA
ATOM      6  H   VAL A   1      16.196  13.451  18.569  0.00  0.00    +0.142 HD
ENDBRANCH   1   5
BRANCH   1   7
ATOM      7  C   VAL A   1      18.581  12.819  20.732  0.00  0.00    +0.224 C 
ATOM      8  O   VAL A   1      19.542  12.118  21.064  0.00  0.00    -0.287 OA
ENDBRANCH   1   7
TORSDOF 3
REMARK  Name = ../refined-set-2016/4e3g/4e3g_pocket.pdb
REMARK  112 active torsions:
REMARK  status: ('A' for Active; 'I' for Inactive)
REMARK    1  A    between atoms: _1  and  _3
REMARK    2  A    between atoms: _3  and  _4
REMARK    3  A    between atoms: _3  and  _6
REMARK    4  A    between atoms: _6  and  _7
REMARK    5  A    between atoms: _17  and  _19
REMARK    6  A    between atoms: _19  and  _20
REMARK    7  A    between atoms: _19  and  _22
REMARK    8  A    between atoms: _22  and  _23
REMARK    9  A    between atoms: _28  and  _29
REMARK   10  A    between atoms: _31  and  _33
REMARK   11  A    between atoms: _33  and  _34
REMARK   12  A    between atoms: _33  and  _36
REMARK   13  A    between atoms: _36  and  _37
REMARK   14  A    between atoms: _47  and  _49
REMARK   15  A    between atoms: _49  and  _50
REMARK   16  A    between atoms: _49  and  _52
REMARK   17  A    between atoms: _52  and  _53
REMARK   18  A    between atoms: _58  and  _60
REMARK   19  A    between atoms: _60  and  _61
REMARK   20  A    between atoms: _60  and  _63
REMARK   21  A    between atoms: _63  and  _64
REMARK   22  A    between atoms: _69  and  _71
REMARK   23  A    between atoms: _71  and  _72
REMARK   24  A    between atoms: _71  and  _74
REMARK   25  A    between atoms: _74  and  _75
REMARK   26  A    between atoms: _78  and  _80
REMARK   27  A    between atoms: _80  and  _81
REMARK   28  A    between atoms: _80  and  _83
REMARK   29  A    between atoms: _83  and  _84
REMARK   30  A    between atoms: _84  and  _85
REMARK   31  A    between atoms: _90  and  _92
REMARK   32  A    between atoms: _92  and  _93
REMARK   33  A    between atoms: _92  and  _95
REMARK   34  A    between atoms: _95  and  _96
REMARK   35  A    between atoms: _102  and  _104
REMARK   36  A    between atoms: _104  and  _105
REMARK   37  A    between atoms: _104  and  _107
REMARK   38  A    between atoms: _107  and  _108
REMARK   39  A    between atoms: _112  and  ZN_301
REMARK   40  A    between atoms: _113  and  _115
REMARK   41  A    between atoms: _115  and  _116
REMARK   42  A    between atoms: _115  and  _118
REMARK   43  A    between atoms: _118  and  _119
REMARK   44  A    between atoms: _123  and  ZN_301
REMARK   45  A    between atoms: _124  and  _126
REMARK   46  A    between atoms: _126  and  _127
REMARK   47  A    between atoms: _126  and  _129
REMARK   48  A    between atoms: _129  and  _130
REMARK   49  A    between atoms: _130  and  _131
REMARK   50  A    between atoms: _134  and  _136
REMARK   51  A    between atoms: _136  and  _137
REMARK   52  A    between atoms: _136  and  _139
REMARK   53  A    between atoms: _139  and  _140
REMARK   54  A    between atoms: _141  and  ZN_301
REMARK   55  A    between atoms: _145  and  _147
REMARK   56  A    between atoms: _147  and  _148
REMARK   57  A    between atoms: _147  and  _150
REMARK   58  A    between atoms: _150  and  _151
REMARK   59  A    between atoms: _154  and  _156
REMARK   60  A    between atoms: _156  and  _157
REMARK   61  A    between atoms: _156  and  _159
REMARK   62  A    between atoms: _162  and  _164
REMARK   63  A    between atoms: _164  and  _165
REMARK   64  A    between atoms: _164  and  _167
REMARK   65  A    between atoms: _167  and  _168
REMARK   66  A    between atoms: _173  and  _175
REMARK   67  A    between atoms: _175  and  _176
REMARK   68  A    between atoms: _175  and  _178
REMARK   69  A    between atoms: _178  and  _179
REMARK   70  A    between atoms: _185  and  _187
REMARK   71  A    between atoms: _187  and  _188
REMARK   72  A    between atoms: _187  and  _190
REMARK   73  A    between atoms: _193  and  _195
REMARK   74  A    between atoms: _195  and  _196
REMARK   75  A    between atoms: _195  and  _198
REMARK   76  A    between atoms: _198  and  _199
REMARK   77  A    between atoms: _202  and  _204
REMARK   78  A    between atoms: _204  and  _205
REMARK   79  A    between atoms: _204  and  _207
REMARK   80  A    between atoms: _210  and  _212
REMARK   81  A    between atoms: _212  and  _213
REMARK   82  A    between atoms: _212  and  _215
REMARK   83  A    between atoms: _215  and  _216
REMARK   84  A    between atoms: _218  and  _220
REMARK   85  A    between atoms: _220  and  _221
REMARK   86  A    between atoms: _220  and  _223
REMARK   87  A    between atoms: _223  and  _224
REMARK   88  A    between atoms: _227  and  _229
REMARK   89  A    between atoms: _229  and  _230
REMARK   90  A    between atoms: _229  and  _232
REMARK   91  A    between atoms: _232  and  _233
REMARK   92  A    between atoms: _236  and  _238
REMARK   93  A    between atoms: _238  and  _239
REMARK   94  A    between atoms: _238  and  _241
REMARK   95  A    between atoms: _241  and  _242
REMARK   96  A    between atoms: _246  and  _247
REMARK   97  A    between atoms: _253  and  _254
REMARK   98  A    between atoms: _259  and  _261
REMARK   99  A    between atoms: _261  and  _262
REMARK  100  A    between atoms: _261  and  _264
REMARK  101  A    between atoms: _264  and  _265
REMARK  102  A    between atoms: _268  and  _270
REMARK  103  A    between atoms: _270  and  _271
REMARK  104  A    between atoms: _270  and  _273
REMARK  105  A    between atoms: _273  and  _274
REMARK  106  A    between atoms: _277  and  _279
REMARK  107  A    between atoms: _279  and  _280
REMARK  108  A    between atoms: _279  and  _282
REMARK  109  A    between atoms: _285  and  _287
REMARK  110  A    between atoms: _287  and  _288
REMARK  111  A    between atoms: _287  and  _290
REMARK  112  A    between atoms: _290  and  _291
REMARK                            x       y       z     vdW  Elec       q    Type
REMARK                         _______ _______ _______ _____ _____    ______ ____
ROOT
ATOM      1  CA  LEU A   1      11.477   8.708  21.412  0.00  0.00    +0.133 C 
ENDROOT
BRANCH   1   2
ATOM      2  N   LEU A   1      12.070   9.665  22.363  0.00  0.00    -0.239 NA
ATOM      3  H   LEU A   1      12.542   9.323  23.225  0.00  0.00    +0.142 HD
ENDBRANCH   1   2
BRANCH   1   4
ATOM      4  C   LEU A   1      10.608   7.695  22.171  0.00  0.00    +0.224 C 
ATOM      5  O   LEU A   1      10.824   7.439  23.363  0.00  0.00    -0.287 OA
ENDBRANCH   1   4
BRANCH   1   6
ATOM      6  CB  LEU A   1      12.582   7.882  20.672  0.00  0.00    +0.025 C 
BRANCH   6   7
ATOM      7  CG  LEU A   1      13.556   8.762  19.907  0.00  0.00    +0.002 C 
ATOM      8  CD2 LEU A   1      14.442   7.776  19.181  0.00  0.00    +0.000 C 
ATOM      9  CD1 LEU A   1      12.903   9.571  18.806  0.00  0.00    +0.000 C 
ENDBRANCH   6   7
ENDBRANCH   1   6
TORSDOF 4
REMARK  Name = ../refined-set-2016/4e3g/4e3g_pocket.pdb
REMARK  112 active torsions:
REMARK  status: ('A' for Active; 'I' for Inactive)
REMARK    1  A    between atoms: _1  and  _3
REMARK    2  A    between atoms: _3  and  _4
REMARK    3  A    between atoms: _3  and  _6
REMARK    4  A    between atoms: _6  and  _7
REMARK    5  A    between atoms: _17  and  _19
REMARK    6  A    between atoms: _19  and  _20
REMARK    7  A    between atoms: _19  and  _22
REMARK    8  A    between atoms: _22  and  _23
REMARK    9  A    between atoms: _28  and  _29
REMARK   10  A    between atoms: _31  and  _33
REMARK   11  A    between atoms: _33  and  _34
REMARK   12  A    between atoms: _33  and  _36
REMARK   13  A    between atoms: _36  and  _37
REMARK   14  A    between atoms: _47  and  _49
REMARK   15  A    between atoms: _49  and  _50
REMARK   16  A    between atoms: _49  and  _52
REMARK   17  A    between atoms: _52  and  _53
REMARK   18  A    between atoms: _58  and  _60
REMARK   19  A    between atoms: _60  and  _61
REMARK   20  A    between atoms: _60  and  _63
REMARK   21  A    between atoms: _63  and  _64
REMARK   22  A    between atoms: _69  and  _71
REMARK   23  A    between atoms: _71  and  _72
REMARK   24  A    between atoms: _71  and  _74
REMARK   25  A    between atoms: _74  and  _75
REMARK   26  A    between atoms: _78  and  _80
REMARK   27  A    between atoms: _80  and  _81
REMARK   28  A    between atoms: _80  and  _83
REMARK   29  A    between atoms: _83  and  _84
REMARK   30  A    between atoms: _84  and  _85
REMARK   31  A    between atoms: _90  and  _92
REMARK   32  A    between atoms: _92  and  _93
REMARK   33  A    between atoms: _92  and  _95
REMARK   34  A    between atoms: _95  and  _96
REMARK   35  A    between atoms: _102  and  _104
REMARK   36  A    between atoms: _104  and  _105
REMARK   37  A    between atoms: _104  and  _107
REMARK   38  A    between atoms: _107  and  _108
REMARK   39  A    between atoms: _112  and  ZN_301
REMARK   40  A    between atoms: _113  and  _115
REMARK   41  A    between atoms: _115  and  _116
REMARK   42  A    between atoms: _115  and  _118
REMARK   43  A    between atoms: _118  and  _119
REMARK   44  A    between atoms: _123  and  ZN_301
REMARK   45  A    between atoms: _124  and  _126
REMARK   46  A    between atoms: _126  and  _127
REMARK   47  A    between atoms: _126  and  _129
REMARK   48  A    between atoms: _129  and  _130
REMARK   49  A    between atoms: _130  and  _131
REMARK   50  A    between atoms: _134  and  _136
REMARK   51  A    between atoms: _136  and  _137
REMARK   52  A    between atoms: _136  and  _139
REMARK   53  A    between atoms: _139  and  _140
REMARK   54  A    between atoms: _141  and  ZN_301
REMARK   55  A    between atoms: _145  and  _147
REMARK   56  A    between atoms: _147  and  _148
REMARK   57  A    between atoms: _147  and  _150
REMARK   58  A    between atoms: _150  and  _151
REMARK   59  A    between atoms: _154  and  _156
REMARK   60  A    between atoms: _156  and  _157
REMARK   61  A    between atoms: _156  and  _159
REMARK   62  A    between atoms: _162  and  _164
REMARK   63  A    between atoms: _164  and  _165
REMARK   64  A    between atoms: _164  and  _167
REMARK   65  A    between atoms: _167  and  _168
REMARK   66  A    between atoms: _173  and  _175
REMARK   67  A    between atoms: _175  and  _176
REMARK   68  A    between atoms: _175  and  _178
REMARK   69  A    between atoms: _178  and  _179
REMARK   70  A    between atoms: _185  and  _187
REMARK   71  A    between atoms: _187  and  _188
REMARK   72  A    between atoms: _187  and  _190
REMARK   73  A    between atoms: _193  and  _195
REMARK   74  A    between atoms: _195  and  _196
REMARK   75  A    between atoms: _195  and  _198
REMARK   76  A    between atoms: _198  and  _199
REMARK   77  A    between atoms: _202  and  _204
REMARK   78  A    between atoms: _204  and  _205
REMARK   79  A    between atoms: _204  and  _207
REMARK   80  A    between atoms: _210  and  _212
REMARK   81  A    between atoms: _212  and  _213
REMARK   82  A    between atoms: _212  and  _215
REMARK   83  A    between atoms: _215  and  _216
REMARK   84  A    between atoms: _218  and  _220
REMARK   85  A    between atoms: _220  and  _221
REMARK   86  A    between atoms: _220  and  _223
REMARK   87  A    between atoms: _223  and  _224
REMARK   88  A    between atoms: _227  and  _229
REMARK   89  A    between atoms: _229  and  _230
REMARK   90  A    between atoms: _229  and  _232
REMARK   91  A    between atoms: _232  and  _233
REMARK   92  A    between atoms: _236  and  _238
REMARK   93  A    between atoms: _238  and  _239
REMARK   94  A    between atoms: _238  and  _241
REMARK   95  A    between atoms: _241  and  _242
REMARK   96  A    between atoms: _246  and  _247
REMARK   97  A    between atoms: _253  and  _254
REMARK   98  A    between atoms: _259  and  _261
REMARK   99  A    between atoms: _261  and  _262
REMARK  100  A    between atoms: _261  and  _264
REMARK  101  A    between atoms: _264  and  _265
REMARK  102  A    between atoms: _268  and  _270
REMARK  103  A    between atoms: _270  and  _271
REMARK  104  A    between atoms: _270  and  _273
REMARK  105  A    between atoms: _273  and  _274
REMARK  106  A    between atoms: _277  and  _279
REMARK  107  A    between atoms: _279  and  _280
REMARK  108  A    between atoms: _279  and  _282
REMARK  109  A    between atoms: _285  and  _287
REMARK  110  A    between atoms: _287  and  _288
REMARK  111  A    between atoms: _287  and  _290
REMARK  112  A    between atoms: _290  and  _291
REMARK                            x       y       z     vdW  Elec       q    Type
REMARK                         _______ _______ _______ _____ _____    ______ ____
ROOT
ATOM      1  CA  VAL A   1       9.227   2.659  20.098  0.00  0.00    +0.133 C 
ENDROOT
BRANCH   1   2
ATOM      2  CB  VAL A   1      10.567   2.000  19.814  0.00  0.00    +0.023 C 
ATOM      3  CG2 VAL A   1      11.564   3.088  19.329  0.00  0.00    +0.002 C 
ATOM      4  CG1 VAL A   1      10.358   0.934  18.688  0.00  0.00    +0.002 C 
ENDBRANCH   1   2
BRANCH   1   5
ATOM      5  N   VAL A   1       9.309   3.732  21.079  0.00  0.00    -0.239 NA
ATOM      6  H   VAL A   1       9.724   3.545  22.014  0.00  0.00    +0.142 HD
ENDBRANCH   1   5
BRANCH   1   7
ATOM      7  C   VAL A   1       8.206   1.607  20.577  0.00  0.00    +0.224 C 
ATOM      8  O   VAL A   1       8.271   1.134  21.712  0.00  0.00    -0.287 OA
ENDBRANCH   1   7
TORSDOF 3
REMARK  Name = ../refined-set-2016/4e3g/4e3g_pocket.pdb
REMARK  112 active torsions:
REMARK  status: ('A' for Active; 'I' for Inactive)
REMARK    1  A    between atoms: _1  and  _3
REMARK    2  A    between atoms: _3  and  _4
REMARK    3  A    between atoms: _3  and  _6
REMARK    4  A    between atoms: _6  and  _7
REMARK    5  A    between atoms: _17  and  _19
REMARK    6  A    between atoms: _19  and  _20
REMARK    7  A    between atoms: _19  and  _22
REMARK    8  A    between atoms: _22  and  _23
REMARK    9  A    between atoms: _28  and  _29
REMARK   10  A    between atoms: _31  and  _33
REMARK   11  A    between atoms: _33  and  _34
REMARK   12  A    between atoms: _33  and  _36
REMARK   13  A    between atoms: _36  and  _37
REMARK   14  A    between atoms: _47  and  _49
REMARK   15  A    between atoms: _49  and  _50
REMARK   16  A    between atoms: _49  and  _52
REMARK   17  A    between atoms: _52  and  _53
REMARK   18  A    between atoms: _58  and  _60
REMARK   19  A    between atoms: _60  and  _61
REMARK   20  A    between atoms: _60  and  _63
REMARK   21  A    between atoms: _63  and  _64
REMARK   22  A    between atoms: _69  and  _71
REMARK   23  A    between atoms: _71  and  _72
REMARK   24  A    between atoms: _71  and  _74
REMARK   25  A    between atoms: _74  and  _75
REMARK   26  A    between atoms: _78  and  _80
REMARK   27  A    between atoms: _80  and  _81
REMARK   28  A    between atoms: _80  and  _83
REMARK   29  A    between atoms: _83  and  _84
REMARK   30  A    between atoms: _84  and  _85
REMARK   31  A    between atoms: _90  and  _92
REMARK   32  A    between atoms: _92  and  _93
REMARK   33  A    between atoms: _92  and  _95
REMARK   34  A    between atoms: _95  and  _96
REMARK   35  A    between atoms: _102  and  _104
REMARK   36  A    between atoms: _104  and  _105
REMARK   37  A    between atoms: _104  and  _107
REMARK   38  A    between atoms: _107  and  _108
REMARK   39  A    between atoms: _112  and  ZN_301
REMARK   40  A    between atoms: _113  and  _115
REMARK   41  A    between atoms: _115  and  _116
REMARK   42  A    between atoms: _115  and  _118
REMARK   43  A    between atoms: _118  and  _119
REMARK   44  A    between atoms: _123  and  ZN_301
REMARK   45  A    between atoms: _124  and  _126
REMARK   46  A    between atoms: _126  and  _127
REMARK   47  A    between atoms: _126  and  _129
REMARK   48  A    between atoms: _129  and  _130
REMARK   49  A    between atoms: _130  and  _131
REMARK   50  A    between atoms: _134  and  _136
REMARK   51  A    between atoms: _136  and  _137
REMARK   52  A    between atoms: _136  and  _139
REMARK   53  A    between atoms: _139  and  _140
REMARK   54  A    between atoms: _141  and  ZN_301
REMARK   55  A    between atoms: _145  and  _147
REMARK   56  A    between atoms: _147  and  _148
REMARK   57  A    between atoms: _147  and  _150
REMARK   58  A    between atoms: _150  and  _151
REMARK   59  A    between atoms: _154  and  _156
REMARK   60  A    between atoms: _156  and  _157
REMARK   61  A    between atoms: _156  and  _159
REMARK   62  A    between atoms: _162  and  _164
REMARK   63  A    between atoms: _164  and  _165
REMARK   64  A    between atoms: _164  and  _167
REMARK   65  A    between atoms: _167  and  _168
REMARK   66  A    between atoms: _173  and  _175
REMARK   67  A    between atoms: _175  and  _176
REMARK   68  A    between atoms: _175  and  _178
REMARK   69  A    between atoms: _178  and  _179
REMARK   70  A    between atoms: _185  and  _187
REMARK   71  A    between atoms: _187  and  _188
REMARK   72  A    between atoms: _187  and  _190
REMARK   73  A    between atoms: _193  and  _195
REMARK   74  A    between atoms: _195  and  _196
REMARK   75  A    between atoms: _195  and  _198
REMARK   76  A    between atoms: _198  and  _199
REMARK   77  A    between atoms: _202  and  _204
REMARK   78  A    between atoms: _204  and  _205
REMARK   79  A    between atoms: _204  and  _207
REMARK   80  A    between atoms: _210  and  _212
REMARK   81  A    between atoms: _212  and  _213
REMARK   82  A    between atoms: _212  and  _215
REMARK   83  A    between atoms: _215  and  _216
REMARK   84  A    between atoms: _218  and  _220
REMARK   85  A    between atoms: _220  and  _221
REMARK   86  A    between atoms: _220  and  _223
REMARK   87  A    between atoms: _223  and  _224
REMARK   88  A    between atoms: _227  and  _229
REMARK   89  A    between atoms: _229  and  _230
REMARK   90  A    between atoms: _229  and  _232
REMARK   91  A    between atoms: _232  and  _233
REMARK   92  A    between atoms: _236  and  _238
REMARK   93  A    between atoms: _238  and  _239
REMARK   94  A    between atoms: _238  and  _241
REMARK   95  A    between atoms: _241  and  _242
REMARK   96  A    between atoms: _246  and  _247
REMARK   97  A    between atoms: _253  and  _254
REMARK   98  A    between atoms: _259  and  _261
REMARK   99  A    between atoms: _261  and  _262
REMARK  100  A    between atoms: _261  and  _264
REMARK  101  A    between atoms: _264  and  _265
REMARK  102  A    between atoms: _268  and  _270
REMARK  103  A    between atoms: _270  and  _271
REMARK  104  A    between atoms: _270  and  _273
REMARK  105  A    between atoms: _273  and  _274
REMARK  106  A    between atoms: _277  and  _279
REMARK  107  A    between atoms: _279  and  _280
REMARK  108  A    between atoms: _279  and  _282
REMARK  109  A    between atoms: _285  and  _287
REMARK  110  A    between atoms: _287  and  _288
REMARK  111  A    between atoms: _287  and  _290
REMARK  112  A    between atoms: _290  and  _291
REMARK                            x       y       z     vdW  Elec       q    Type
REMARK                         _______ _______ _______ _____ _____    ______ ____
ROOT
ATOM      1  C   THR A   4      21.914   1.308  16.173  0.00  0.00    +0.246 C 
ATOM      2  O   THR A   4      21.406   2.305  16.710  0.00  0.00    -0.273 OA
ATOM      3  N   PRO A   5      23.220   1.289  15.740  0.00  0.00    -0.272 N 
ATOM      4  CA  PRO A   5      23.963   2.556  15.773  0.00  0.00    +0.152 C 
ATOM      5  CB  PRO A   5      25.191   2.229  14.951  0.00  0.00    +0.031 C 
ATOM      6  CG  PRO A   5      25.389   0.715  15.194  0.00  0.00    +0.024 C 
ATOM      7  CD  PRO A   5      23.961   0.162  15.170  0.00  0.00    +0.094 C 
ENDROOT
BRANCH   4   8
ATOM      8  C   PRO A   5      23.157   3.723  15.168  0.00  0.00    +0.244 C 
ATOM      9  N   PRO A   6      23.126   4.845  15.899  0.00  0.00    -0.272 N 
ATOM     10  CA  PRO A   6      23.998   5.243  16.996  0.00  0.00    +0.152 C 
ATOM     11  CB  PRO A   6      23.967   6.802  16.874  0.00  0.00    +0.031 C 
ATOM     12  CG  PRO A   6      22.621   7.074  16.351  0.00  0.00    +0.024 C 
ATOM     13  CD  PRO A   6      22.304   5.982  15.402  0.00  0.00    +0.094 C 
ATOM     14  O   PRO A   5      22.479   3.600  14.099  0.00  0.00    -0.273 OA
BRANCH  10  15
ATOM     15  C   PRO A   6      23.617   4.826  18.413  0.00  0.00    +0.241 C 
ATOM     16  O   PRO A   6      24.240   5.267  19.367  0.00  0.00    -0.273 OA
ATOM     17  N   LEU A   7      22.639   3.950  18.527  0.00  0.00    -0.297 N 
ATOM     18  H   LEU A   7      22.061   3.689  17.702  0.00  0.00    +0.150 HD
BRANCH  17  19
ATOM     19  CA  LEU A   7      22.380   3.346  19.851  0.00  0.00    +0.149 C 
BRANCH  19  20
ATOM     20  C   LEU A   7      21.946   4.336  20.960  0.00  0.00    +0.241 C 
ATOM     21  O   LEU A   7      22.164   4.122  22.150  0.00  0.00    -0.273 OA
ATOM     22  N   LEU A   8      21.314   5.429  20.548  0.00  0.00    -0.298 N 
ATOM     23  H   LEU A   8      20.988   5.490  19.562  0.00  0.00    +0.150 HD
BRANCH  22  24
ATOM     24  CA  LEU A   8      21.075   6.523  21.437  0.00  0.00    +0.137 C 
BRANCH  24  25
ATOM     25  C   LEU A   8      20.003   6.220  22.522  0.00  0.00    +0.227 C 
ATOM     26  O   LEU A   8      18.984   5.517  22.294  0.00  0.00    -0.286 OA
ENDBRANCH  24  25
BRANCH  24  27
ATOM     27  CB  LEU A   8      20.672   7.807  20.650  0.00  0.00    +0.028 C 
BRANCH  27  28
ATOM     28  CG  LEU A   8      21.806   8.255  19.613  0.00  0.00    +0.002 C 
ATOM     29  CD2 LEU A   8      22.989   8.785  20.372  0.00  0.00    +0.000 C 
ATOM     30  CD1 LEU A   8      21.145   9.356  18.765  0.00  0.00    +0.000 C 
ENDBRANCH  27  28
ENDBRANCH  24  27
ENDBRANCH  22  24
ENDBRANCH  19  20
BRANCH  19  31
ATOM     31  CB  LEU A   7      23.500   2.436  20.353  0.00  0.00    +0.029 C 
BRANCH  31  32
ATOM     32  CG  LEU A   7      23.868   1.304  19.371  0.00  0.00    +0.002 C 
ATOM     33  CD2 LEU A   7      25.181   0.719  19.837  0.00  0.00    +0.000 C 
ATOM     34  CD1 LEU A   7      22.810   0.200  19.377  0.00  0.00    +0.000 C 
ENDBRANCH  31  32
ENDBRANCH  19  31
ENDBRANCH  17  19
ENDBRANCH  10  15
ENDBRANCH   4   8
BRANCH   1  35
ATOM     35  CA  THR A   4      21.098   0.054  15.865  0.00  0.00    +0.176 C 
BRANCH  35  38
ATOM     36  C   THR A   3      19.919  -1.123  17.663  0.00  0.00    +0.243 C 
ATOM     37  O   THR A   3      20.581  -2.156  17.564  0.00  0.00    -0.273 OA
ATOM     38  N   THR A   4      20.078  -0.031  16.892  0.00  0.00    -0.295 N 
ATOM     39  H   THR A   4      19.446   0.782  17.038  0.00  0.00    +0.150 HD
BRANCH  36  40
ATOM     40  CA  THR A   3      18.954  -0.959  18.840  0.00  0.00    +0.176 C 
BRANCH  40  43
ATOM     41  C   LEU A   2      18.610   1.280  19.692  0.00  0.00    +0.241 C 
ATOM     42  O   LEU A   2      19.655   1.180  20.411  0.00  0.00    -0.273 OA
ATOM     43  N   THR A   3      18.235   0.322  18.834  0.00  0.00    -0.295 N 
ATOM     44  H   THR A   3      17.447   0.483  18.174  0.00  0.00    +0.150 HD
BRANCH  41  45
ATOM     45  CA  LEU A   2      17.757   2.545  19.701  0.00  0.00    +0.149 C 
BRANCH  45  48
ATOM     46  C   SER A   1      17.320   2.396  22.119  0.00  0.00    +0.241 C 
ATOM     47  O   SER A   1      16.576   1.402  22.003  0.00  0.00    -0.274 OA
ATOM     48  N   LEU A   2      17.849   3.042  21.090  0.00  0.00    -0.297 N 
ATOM     49  H   LEU A   2      18.350   3.936  21.267  0.00  0.00    +0.150 HD
BRANCH  46  50
ATOM     50  CA  SER A   1      17.823   2.858  23.461  0.00  0.00    +0.174 C 
BRANCH  50  51
ATOM     51  N   SER A   1      17.066   2.206  24.525  0.00  0.00    -0.236 NA
ATOM     52  H   SER A   1      16.832   1.196  24.436  0.00  0.00    +0.142 HD
ENDBRANCH  50  51
BRANCH  50  53
ATOM     53  CB  SER A   1      19.301   2.479  23.572  0.00  0.00    +0.163 C 
BRANCH  53  54
ATOM     54  OG  SER A   1      19.585   1.120  23.118  0.00  0.00    -0.380 OA
ATOM     55  H   SER A   1      19.324   1.030  22.167  0.00  0.00    +0.211 HD
ENDBRANCH  53  54
ENDBRANCH  50  53
ENDBRANCH  46  50
ENDBRANCH  45  48
BRANCH  45  56
ATOM     56  CB  LEU A   2      18.333   3.561  18.757  0.00  0.00    +0.029 C 
BRANCH  56  57
ATOM     57  CG  LEU A   2      17.446   4.835  18.663  0.00  0.00    +0.002 C 
ATOM     58  CD2 LEU A   2      16.019   4.513  18.132  0.00  0.00    +0.000 C 
ATOM     59  CD1 LEU A   2      18.198   5.925  17.865  0.00  0.00    +0.000 C 
ENDBRANCH  56  57
ENDBRANCH  45  56
ENDBRANCH  41  45
ENDBRANCH  40  43
BRANCH  40  60
ATOM     60  CB  THR A   3      17.993  -2.176  18.911  0.00  0.00    +0.137 C 
ATOM     61  CG2 THR A   3      17.018  -2.093  19.996  0.00  0.00    +0.034 C 
BRANCH  60  62
ATOM     62  OG1 THR A   3      17.361  -2.291  17.641  0.00  0.00    -0.382 OA
ATOM     63  HG1 THR A   3      16.739  -3.061  17.652  0.00  0.00    +0.210 HD
ENDBRANCH  60  62
ENDBRANCH  40  60
ENDBRANCH  36  40
ENDBRANCH  35  38
BRANCH  35  64
ATOM     64  CB  THR A   4      20.503   0.091  14.409  0.00  0.00    +0.137 C 
ATOM     65  CG2 THR A   4      19.702  -1.121  14.067  0.00  0.00    +0.034 C 
BRANCH  64  66
ATOM     66  OG1 THR A   4      19.708   1.270  14.271  0.00  0.00    -0.382 OA
ATOM     67  HG1 THR A   4      18.974   1.251  14.935  0.00  0.00    +0.210 HD
ENDBRANCH  64  66
ENDBRANCH  35  64
ENDBRANCH   1  35
TORSDOF 26
REMARK  Name = ../refined-set-2016/4e3g/4e3g_pocket.pdb
REMARK  112 active torsions:
REMARK  status: ('A' for Active; 'I' for Inactive)
REMARK    1  A    between atoms: _1  and  _3
REMARK    2  A    between atoms: _3  and  _4
REMARK    3  A    between atoms: _3  and  _6
REMARK    4  A    between atoms: _6  and  _7
REMARK    5  A    between atoms: _17  and  _19
REMARK    6  A    between atoms: _19  and  _20
REMARK    7  A    between atoms: _19  and  _22
REMARK    8  A    between atoms: _22  and  _23
REMARK    9  A    between atoms: _28  and  _29
REMARK   10  A    between atoms: _31  and  _33
REMARK   11  A    between atoms: _33  and  _34
REMARK   12  A    between atoms: _33  and  _36
REMARK   13  A    between atoms: _36  and  _37
REMARK   14  A    between atoms: _47  and  _49
REMARK   15  A    between atoms: _49  and  _50
REMARK   16  A    between atoms: _49  and  _52
REMARK   17  A    between atoms: _52  and  _53
REMARK   18  A    between atoms: _58  and  _60
REMARK   19  A    between atoms: _60  and  _61
REMARK   20  A    between atoms: _60  and  _63
REMARK   21  A    between atoms: _63  and  _64
REMARK   22  A    between atoms: _69  and  _71
REMARK   23  A    between atoms: _71  and  _72
REMARK   24  A    between atoms: _71  and  _74
REMARK   25  A    between atoms: _74  and  _75
REMARK   26  A    between atoms: _78  and  _80
REMARK   27  A    between atoms: _80  and  _81
REMARK   28  A    between atoms: _80  and  _83
REMARK   29  A    between atoms: _83  and  _84
REMARK   30  A    between atoms: _84  and  _85
REMARK   31  A    between atoms: _90  and  _92
REMARK   32  A    between atoms: _92  and  _93
REMARK   33  A    between atoms: _92  and  _95
REMARK   34  A    between atoms: _95  and  _96
REMARK   35  A    between atoms: _102  and  _104
REMARK   36  A    between atoms: _104  and  _105
REMARK   37  A    between atoms: _104  and  _107
REMARK   38  A    between atoms: _107  and  _108
REMARK   39  A    between atoms: _112  and  ZN_301
REMARK   40  A    between atoms: _113  and  _115
REMARK   41  A    between atoms: _115  and  _116
REMARK   42  A    between atoms: _115  and  _118
REMARK   43  A    between atoms: _118  and  _119
REMARK   44  A    between atoms: _123  and  ZN_301
REMARK   45  A    between atoms: _124  and  _126
REMARK   46  A    between atoms: _126  and  _127
REMARK   47  A    between atoms: _126  and  _129
REMARK   48  A    between atoms: _129  and  _130
REMARK   49  A    between atoms: _130  and  _131
REMARK   50  A    between atoms: _134  and  _136
REMARK   51  A    between atoms: _136  and  _137
REMARK   52  A    between atoms: _136  and  _139
REMARK   53  A    between atoms: _139  and  _140
REMARK   54  A    between atoms: _141  and  ZN_301
REMARK   55  A    between atoms: _145  and  _147
REMARK   56  A    between atoms: _147  and  _148
REMARK   57  A    between atoms: _147  and  _150
REMARK   58  A    between atoms: _150  and  _151
REMARK   59  A    between atoms: _154  and  _156
REMARK   60  A    between atoms: _156  and  _157
REMARK   61  A    between atoms: _156  and  _159
REMARK   62  A    between atoms: _162  and  _164
REMARK   63  A    between atoms: _164  and  _165
REMARK   64  A    between atoms: _164  and  _167
REMARK   65  A    between atoms: _167  and  _168
REMARK   66  A    between atoms: _173  and  _175
REMARK   67  A    between atoms: _175  and  _176
REMARK   68  A    between atoms: _175  and  _178
REMARK   69  A    between atoms: _178  and  _179
REMARK   70  A    between atoms: _185  and  _187
REMARK   71  A    between atoms: _187  and  _188
REMARK   72  A    between atoms: _187  and  _190
REMARK   73  A    between atoms: _193  and  _195
REMARK   74  A    between atoms: _195  and  _196
REMARK   75  A    between atoms: _195  and  _198
REMARK   76  A    between atoms: _198  and  _199
REMARK   77  A    between atoms: _202  and  _204
REMARK   78  A    between atoms: _204  and  _205
REMARK   79  A    between atoms: _204  and  _207
REMARK   80  A    between atoms: _210  and  _212
REMARK   81  A    between atoms: _212  and  _213
REMARK   82  A    between atoms: _212  and  _215
REMARK   83  A    between atoms: _215  and  _216
REMARK   84  A    between atoms: _218  and  _220
REMARK   85  A    between atoms: _220  and  _221
REMARK   86  A    between atoms: _220  and  _223
REMARK   87  A    between atoms: _223  and  _224
REMARK   88  A    between atoms: _227  and  _229
REMARK   89  A    between atoms: _229  and  _230
REMARK   90  A    between atoms: _229  and  _232
REMARK   91  A    between atoms: _232  and  _233
REMARK   92  A    between atoms: _236  and  _238
REMARK   93  A    between atoms: _238  and  _239
REMARK   94  A    between atoms: _238  and  _241
REMARK   95  A    between atoms: _241  and  _242
REMARK   96  A    between atoms: _246  and  _247
REMARK   97  A    between atoms: _253  and  _254
REMARK   98  A    between atoms: _259  and  _261
REMARK   99  A    between atoms: _261  and  _262
REMARK  100  A    between atoms: _261  and  _264
REMARK  101  A    between atoms: _264  and  _265
REMARK  102  A    between atoms: _268  and  _270
REMARK  103  A    between atoms: _270  and  _271
REMARK  104  A    between atoms: _270  and  _273
REMARK  105  A    between atoms: _273  and  _274
REMARK  106  A    between atoms: _277  and  _279
REMARK  107  A    between atoms: _279  and  _280
REMARK  108  A    between atoms: _279  and  _282
REMARK  109  A    between atoms: _285  and  _287
REMARK  110  A    between atoms: _287  and  _288
REMARK  111  A    between atoms: _287  and  _290
REMARK  112  A    between atoms: _290  and  _291
REMARK                            x       y       z     vdW  Elec       q    Type
REMARK                         _______ _______ _______ _____ _____    ______ ____
ROOT
ATOM      1  CA  VAL A   1      13.638   5.565  23.963  0.00  0.00    +0.133 C 
ENDROOT
BRANCH   1   2
ATOM      2  CB  VAL A   1      13.934   4.289  23.121  0.00  0.00    +0.023 C 
ATOM      3  CG2 VAL A   1      12.596   3.532  22.786  0.00  0.00    +0.002 C 
ATOM      4  CG1 VAL A   1      14.788   4.746  21.854  0.00  0.00    +0.002 C 
ENDBRANCH   1   2
BRANCH   1   5
ATOM      5  N   VAL A   1      14.880   6.267  24.319  0.00  0.00    -0.239 NA
ATOM      6  H   VAL A   1      15.717   5.735  24.632  0.00  0.00    +0.142 HD
ENDBRANCH   1   5
BRANCH   1   7
ATOM      7  C   VAL A   1      12.834   5.098  25.172  0.00  0.00    +0.224 C 
ATOM      8  O   VAL A   1      13.390   4.455  26.075  0.00  0.00    -0.287 OA
ENDBRANCH   1   7
TORSDOF 3
REMARK  Name = ../refined-set-2016/4e3g/4e3g_pocket.pdb
REMARK  112 active torsions:
REMARK  status: ('A' for Active; 'I' for Inactive)
REMARK    1  A    between atoms: _1  and  _3
REMARK    2  A    between atoms: _3  and  _4
REMARK    3  A    between atoms: _3  and  _6
REMARK    4  A    between atoms: _6  and  _7
REMARK    5  A    between atoms: _17  and  _19
REMARK    6  A    between atoms: _19  and  _20
REMARK    7  A    between atoms: _19  and  _22
REMARK    8  A    between atoms: _22  and  _23
REMARK    9  A    between atoms: _28  and  _29
REMARK   10  A    between atoms: _31  and  _33
REMARK   11  A    between atoms: _33  and  _34
REMARK   12  A    between atoms: _33  and  _36
REMARK   13  A    between atoms: _36  and  _37
REMARK   14  A    between atoms: _47  and  _49
REMARK   15  A    between atoms: _49  and  _50
REMARK   16  A    between atoms: _49  and  _52
REMARK   17  A    between atoms: _52  and  _53
REMARK   18  A    between atoms: _58  and  _60
REMARK   19  A    between atoms: _60  and  _61
REMARK   20  A    between atoms: _60  and  _63
REMARK   21  A    between atoms: _63  and  _64
REMARK   22  A    between atoms: _69  and  _71
REMARK   23  A    between atoms: _71  and  _72
REMARK   24  A    between atoms: _71  and  _74
REMARK   25  A    between atoms: _74  and  _75
REMARK   26  A    between atoms: _78  and  _80
REMARK   27  A    between atoms: _80  and  _81
REMARK   28  A    between atoms: _80  and  _83
REMARK   29  A    between atoms: _83  and  _84
REMARK   30  A    between atoms: _84  and  _85
REMARK   31  A    between atoms: _90  and  _92
REMARK   32  A    between atoms: _92  and  _93
REMARK   33  A    between atoms: _92  and  _95
REMARK   34  A    between atoms: _95  and  _96
REMARK   35  A    between atoms: _102  and  _104
REMARK   36  A    between atoms: _104  and  _105
REMARK   37  A    between atoms: _104  and  _107
REMARK   38  A    between atoms: _107  and  _108
REMARK   39  A    between atoms: _112  and  ZN_301
REMARK   40  A    between atoms: _113  and  _115
REMARK   41  A    between atoms: _115  and  _116
REMARK   42  A    between atoms: _115  and  _118
REMARK   43  A    between atoms: _118  and  _119
REMARK   44  A    between atoms: _123  and  ZN_301
REMARK   45  A    between atoms: _124  and  _126
REMARK   46  A    between atoms: _126  and  _127
REMARK   47  A    between atoms: _126  and  _129
REMARK   48  A    between atoms: _129  and  _130
REMARK   49  A    between atoms: _130  and  _131
REMARK   50  A    between atoms: _134  and  _136
REMARK   51  A    between atoms: _136  and  _137
REMARK   52  A    between atoms: _136  and  _139
REMARK   53  A    between atoms: _139  and  _140
REMARK   54  A    between atoms: _141  and  ZN_301
REMARK   55  A    between atoms: _145  and  _147
REMARK   56  A    between atoms: _147  and  _148
REMARK   57  A    between atoms: _147  and  _150
REMARK   58  A    between atoms: _150  and  _151
REMARK   59  A    between atoms: _154  and  _156
REMARK   60  A    between atoms: _156  and  _157
REMARK   61  A    between atoms: _156  and  _159
REMARK   62  A    between atoms: _162  and  _164
REMARK   63  A    between atoms: _164  and  _165
REMARK   64  A    between atoms: _164  and  _167
REMARK   65  A    between atoms: _167  and  _168
REMARK   66  A    between atoms: _173  and  _175
REMARK   67  A    between atoms: _175  and  _176
REMARK   68  A    between atoms: _175  and  _178
REMARK   69  A    between atoms: _178  and  _179
REMARK   70  A    between atoms: _185  and  _187
REMARK   71  A    between atoms: _187  and  _188
REMARK   72  A    between atoms: _187  and  _190
REMARK   73  A    between atoms: _193  and  _195
REMARK   74  A    between atoms: _195  and  _196
REMARK   75  A    between atoms: _195  and  _198
REMARK   76  A    between atoms: _198  and  _199
REMARK   77  A    between atoms: _202  and  _204
REMARK   78  A    between atoms: _204  and  _205
REMARK   79  A    between atoms: _204  and  _207
REMARK   80  A    between atoms: _210  and  _212
REMARK   81  A    between atoms: _212  and  _213
REMARK   82  A    between atoms: _212  and  _215
REMARK   83  A    between atoms: _215  and  _216
REMARK   84  A    between atoms: _218  and  _220
REMARK   85  A    between atoms: _220  and  _221
REMARK   86  A    between atoms: _220  and  _223
REMARK   87  A    between atoms: _223  and  _224
REMARK   88  A    between atoms: _227  and  _229
REMARK   89  A    between atoms: _229  and  _230
REMARK   90  A    between atoms: _229  and  _232
REMARK   91  A    between atoms: _232  and  _233
REMARK   92  A    between atoms: _236  and  _238
REMARK   93  A    between atoms: _238  and  _239
REMARK   94  A    between atoms: _238  and  _241
REMARK   95  A    between atoms: _241  and  _242
REMARK   96  A    between atoms: _246  and  _247
REMARK   97  A    between atoms: _253  and  _254
REMARK   98  A    between atoms: _259  and  _261
REMARK   99  A    between atoms: _261  and  _262
REMARK  100  A    between atoms: _261  and  _264
REMARK  101  A    between atoms: _264  and  _265
REMARK  102  A    between atoms: _268  and  _270
REMARK  103  A    between atoms: _270  and  _271
REMARK  104  A    between atoms: _270  and  _273
REMARK  105  A    between atoms: _273  and  _274
REMARK  106  A    between atoms: _277  and  _279
REMARK  107  A    between atoms: _279  and  _280
REMARK  108  A    between atoms: _279  and  _282
REMARK  109  A    between atoms: _285  and  _287
REMARK  110  A    between atoms: _287  and  _288
REMARK  111  A    between atoms: _287  and  _290
REMARK  112  A    between atoms: _290  and  _291
REMARK                            x       y       z     vdW  Elec       q    Type
REMARK                         _______ _______ _______ _____ _____    ______ ____
ROOT
ATOM      1  CG  TRP A   1      12.162   0.047  24.244  0.00  0.00    -0.002 A 
ATOM      2  CD1 TRP A   1      13.427   0.616  24.455  0.00  0.00    +0.068 A 
ATOM      3  NE1 TRP A   1      14.148   0.575  23.285  0.00  0.00    -0.352 N 
ATOM      4  HE1 TRP A   1      15.095   0.984  23.152  0.00  0.00    +0.166 HD
ATOM      5  CE2 TRP A   1      13.431  -0.086  22.320  0.00  0.00    +0.056 A 
ATOM      6  CZ2 TRP A   1      13.719  -0.320  21.001  0.00  0.00    +0.017 A 
ATOM      7  CH2 TRP A   1      12.785  -1.078  20.282  0.00  0.00    +0.001 A 
ATOM      8  CZ3 TRP A   1      11.535  -1.376  20.810  0.00  0.00    +0.000 A 
ATOM      9  CE3 TRP A   1      11.204  -1.084  22.070  0.00  0.00    +0.001 A 
ATOM     10  CD2 TRP A   1      12.161  -0.400  22.883  0.00  0.00    +0.013 A 
ENDROOT
BRANCH   1  11
ATOM     11  CB  TRP A   1      11.001  -0.074  25.183  0.00  0.00    +0.053 C 
BRANCH  11  12
ATOM     12  CA  TRP A   1      10.018   1.136  24.938  0.00  0.00    +0.137 C 
BRANCH  12  13
ATOM     13  N   TRP A   1      10.543   2.320  25.623  0.00  0.00    -0.239 NA
ATOM     14  H   TRP A   1      11.233   2.215  26.394  0.00  0.00    +0.142 HD
ENDBRANCH  12  13
BRANCH  12  15
ATOM     15  C   TRP A   1       8.651   0.713  25.450  0.00  0.00    +0.224 C 
ATOM     16  O   TRP A   1       8.400   0.631  26.646  0.00  0.00    -0.287 OA
ENDBRANCH  12  15
ENDBRANCH  11  12
ENDBRANCH   1  11
TORSDOF 4
REMARK  Name = ../refined-set-2016/4e3g/4e3g_pocket.pdb
REMARK  112 active torsions:
REMARK  status: ('A' for Active; 'I' for Inactive)
REMARK    1  A    between atoms: _1  and  _3
REMARK    2  A    between atoms: _3  and  _4
REMARK    3  A    between atoms: _3  and  _6
REMARK    4  A    between atoms: _6  and  _7
REMARK    5  A    between atoms: _17  and  _19
REMARK    6  A    between atoms: _19  and  _20
REMARK    7  A    between atoms: _19  and  _22
REMARK    8  A    between atoms: _22  and  _23
REMARK    9  A    between atoms: _28  and  _29
REMARK   10  A    between atoms: _31  and  _33
REMARK   11  A    between atoms: _33  and  _34
REMARK   12  A    between atoms: _33  and  _36
REMARK   13  A    between atoms: _36  and  _37
REMARK   14  A    between atoms: _47  and  _49
REMARK   15  A    between atoms: _49  and  _50
REMARK   16  A    between atoms: _49  and  _52
REMARK   17  A    between atoms: _52  and  _53
REMARK   18  A    between atoms: _58  and  _60
REMARK   19  A    between atoms: _60  and  _61
REMARK   20  A    between atoms: _60  and  _63
REMARK   21  A    between atoms: _63  and  _64
REMARK   22  A    between atoms: _69  and  _71
REMARK   23  A    between atoms: _71  and  _72
REMARK   24  A    between atoms: _71  and  _74
REMARK   25  A    between atoms: _74  and  _75
REMARK   26  A    between atoms: _78  and  _80
REMARK   27  A    between atoms: _80  and  _81
REMARK   28  A    between atoms: _80  and  _83
REMARK   29  A    between atoms: _83  and  _84
REMARK   30  A    between atoms: _84  and  _85
REMARK   31  A    between atoms: _90  and  _92
REMARK   32  A    between atoms: _92  and  _93
REMARK   33  A    between atoms: _92  and  _95
REMARK   34  A    between atoms: _95  and  _96
REMARK   35  A    between atoms: _102  and  _104
REMARK   36  A    between atoms: _104  and  _105
REMARK   37  A    between atoms: _104  and  _107
REMARK   38  A    between atoms: _107  and  _108
REMARK   39  A    between atoms: _112  and  ZN_301
REMARK   40  A    between atoms: _113  and  _115
REMARK   41  A    between atoms: _115  and  _116
REMARK   42  A    between atoms: _115  and  _118
REMARK   43  A    between atoms: _118  and  _119
REMARK   44  A    between atoms: _123  and  ZN_301
REMARK   45  A    between atoms: _124  and  _126
REMARK   46  A    between atoms: _126  and  _127
REMARK   47  A    between atoms: _126  and  _129
REMARK   48  A    between atoms: _129  and  _130
REMARK   49  A    between atoms: _130  and  _131
REMARK   50  A    between atoms: _134  and  _136
REMARK   51  A    between atoms: _136  and  _137
REMARK   52  A    between atoms: _136  and  _139
REMARK   53  A    between atoms: _139  and  _140
REMARK   54  A    between atoms: _141  and  ZN_301
REMARK   55  A    between atoms: _145  and  _147
REMARK   56  A    between atoms: _147  and  _148
REMARK   57  A    between atoms: _147  and  _150
REMARK   58  A    between atoms: _150  and  _151
REMARK   59  A    between atoms: _154  and  _156
REMARK   60  A    between atoms: _156  and  _157
REMARK   61  A    between atoms: _156  and  _159
REMARK   62  A    between atoms: _162  and  _164
REMARK   63  A    between atoms: _164  and  _165
REMARK   64  A    between atoms: _164  and  _167
REMARK   65  A    between atoms: _167  and  _168
REMARK   66  A    between atoms: _173  and  _175
REMARK   67  A    between atoms: _175  and  _176
REMARK   68  A    between atoms: _175  and  _178
REMARK   69  A    between atoms: _178  and  _179
REMARK   70  A    between atoms: _185  and  _187
REMARK   71  A    between atoms: _187  and  _188
REMARK   72  A    between atoms: _187  and  _190
REMARK   73  A    between atoms: _193  and  _195
REMARK   74  A    between atoms: _195  and  _196
REMARK   75  A    between atoms: _195  and  _198
REMARK   76  A    between atoms: _198  and  _199
REMARK   77  A    between atoms: _202  and  _204
REMARK   78  A    between atoms: _204  and  _205
REMARK   79  A    between atoms: _204  and  _207
REMARK   80  A    between atoms: _210  and  _212
REMARK   81  A    between atoms: _212  and  _213
REMARK   82  A    between atoms: _212  and  _215
REMARK   83  A    between atoms: _215  and  _216
REMARK   84  A    between atoms: _218  and  _220
REMARK   85  A    between atoms: _220  and  _221
REMARK   86  A    between atoms: _220  and  _223
REMARK   87  A    between atoms: _223  and  _224
REMARK   88  A    between atoms: _227  and  _229
REMARK   89  A    between atoms: _229  and  _230
REMARK   90  A    between atoms: _229  and  _232
REMARK   91  A    between atoms: _232  and  _233
REMARK   92  A    between atoms: _236  and  _238
REMARK   93  A    between atoms: _238  and  _239
REMARK   94  A    between atoms: _238  and  _241
REMARK   95  A    between atoms: _241  and  _242
REMARK   96  A    between atoms: _246  and  _247
REMARK   97  A    between atoms: _253  and  _254
REMARK   98  A    between atoms: _259  and  _261
REMARK   99  A    between atoms: _261  and  _262
REMARK  100  A    between atoms: _261  and  _264
REMARK  101  A    between atoms: _264  and  _265
REMARK  102  A    between atoms: _268  and  _270
REMARK  103  A    between atoms: _270  and  _271
REMARK  104  A    between atoms: _270  and  _273
REMARK  105  A    between atoms: _273  and  _274
REMARK  106  A    between atoms: _277  and  _279
REMARK  107  A    between atoms: _279  and  _280
REMARK  108  A    between atoms: _279  and  _282
REMARK  109  A    between atoms: _285  and  _287
REMARK  110  A    between atoms: _287  and  _288
REMARK  111  A    between atoms: _287  and  _290
REMARK  112  A    between atoms: _290  and  _291
REMARK                            x       y       z     vdW  Elec       q    Type
REMARK                         _______ _______ _______ _____ _____    ______ ____
ROOT
ATOM      1  O   HOH     1      15.340   0.688  18.107  0.00  0.00    +0.000 OA
ENDROOT
TORSDOF 0
REMARK  Name = ../refined-set-2016/4e3g/4e3g_pocket.pdb
REMARK  112 active torsions:
REMARK  status: ('A' for Active; 'I' for Inactive)
REMARK    1  A    between atoms: _1  and  _3
REMARK    2  A    between atoms: _3  and  _4
REMARK    3  A    between atoms: _3  and  _6
REMARK    4  A    between atoms: _6  and  _7
REMARK    5  A    between atoms: _17  and  _19
REMARK    6  A    between atoms: _19  and  _20
REMARK    7  A    between atoms: _19  and  _22
REMARK    8  A    between atoms: _22  and  _23
REMARK    9  A    between atoms: _28  and  _29
REMARK   10  A    between atoms: _31  and  _33
REMARK   11  A    between atoms: _33  and  _34
REMARK   12  A    between atoms: _33  and  _36
REMARK   13  A    between atoms: _36  and  _37
REMARK   14  A    between atoms: _47  and  _49
REMARK   15  A    between atoms: _49  and  _50
REMARK   16  A    between atoms: _49  and  _52
REMARK   17  A    between atoms: _52  and  _53
REMARK   18  A    between atoms: _58  and  _60
REMARK   19  A    between atoms: _60  and  _61
REMARK   20  A    between atoms: _60  and  _63
REMARK   21  A    between atoms: _63  and  _64
REMARK   22  A    between atoms: _69  and  _71
REMARK   23  A    between atoms: _71  and  _72
REMARK   24  A    between atoms: _71  and  _74
REMARK   25  A    between atoms: _74  and  _75
REMARK   26  A    between atoms: _78  and  _80
REMARK   27  A    between atoms: _80  and  _81
REMARK   28  A    between atoms: _80  and  _83
REMARK   29  A    between atoms: _83  and  _84
REMARK   30  A    between atoms: _84  and  _85
REMARK   31  A    between atoms: _90  and  _92
REMARK   32  A    between atoms: _92  and  _93
REMARK   33  A    between atoms: _92  and  _95
REMARK   34  A    between atoms: _95  and  _96
REMARK   35  A    between atoms: _102  and  _104
REMARK   36  A    between atoms: _104  and  _105
REMARK   37  A    between atoms: _104  and  _107
REMARK   38  A    between atoms: _107  and  _108
REMARK   39  A    between atoms: _112  and  ZN_301
REMARK   40  A    between atoms: _113  and  _115
REMARK   41  A    between atoms: _115  and  _116
REMARK   42  A    between atoms: _115  and  _118
REMARK   43  A    between atoms: _118  and  _119
REMARK   44  A    between atoms: _123  and  ZN_301
REMARK   45  A    between atoms: _124  and  _126
REMARK   46  A    between atoms: _126  and  _127
REMARK   47  A    between atoms: _126  and  _129
REMARK   48  A    between atoms: _129  and  _130
REMARK   49  A    between atoms: _130  and  _131
REMARK   50  A    between atoms: _134  and  _136
REMARK   51  A    between atoms: _136  and  _137
REMARK   52  A    between atoms: _136  and  _139
REMARK   53  A    between atoms: _139  and  _140
REMARK   54  A    between atoms: _141  and  ZN_301
REMARK   55  A    between atoms: _145  and  _147
REMARK   56  A    between atoms: _147  and  _148
REMARK   57  A    between atoms: _147  and  _150
REMARK   58  A    between atoms: _150  and  _151
REMARK   59  A    between atoms: _154  and  _156
REMARK   60  A    between atoms: _156  and  _157
REMARK   61  A    between atoms: _156  and  _159
REMARK   62  A    between atoms: _162  and  _164
REMARK   63  A    between atoms: _164  and  _165
REMARK   64  A    between atoms: _164  and  _167
REMARK   65  A    between atoms: _167  and  _168
REMARK   66  A    between atoms: _173  and  _175
REMARK   67  A    between atoms: _175  and  _176
REMARK   68  A    between atoms: _175  and  _178
REMARK   69  A    between atoms: _178  and  _179
REMARK   70  A    between atoms: _185  and  _187
REMARK   71  A    between atoms: _187  and  _188
REMARK   72  A    between atoms: _187  and  _190
REMARK   73  A    between atoms: _193  and  _195
REMARK   74  A    between atoms: _195  and  _196
REMARK   75  A    between atoms: _195  and  _198
REMARK   76  A    between atoms: _198  and  _199
REMARK   77  A    between atoms: _202  and  _204
REMARK   78  A    between atoms: _204  and  _205
REMARK   79  A    between atoms: _204  and  _207
REMARK   80  A    between atoms: _210  and  _212
REMARK   81  A    between atoms: _212  and  _213
REMARK   82  A    between atoms: _212  and  _215
REMARK   83  A    between atoms: _215  and  _216
REMARK   84  A    between atoms: _218  and  _220
REMARK   85  A    between atoms: _220  and  _221
REMARK   86  A    between atoms: _220  and  _223
REMARK   87  A    between atoms: _223  and  _224
REMARK   88  A    between atoms: _227  and  _229
REMARK   89  A    between atoms: _229  and  _230
REMARK   90  A    between atoms: _229  and  _232
REMARK   91  A    between atoms: _232  and  _233
REMARK   92  A    between atoms: _236  and  _238
REMARK   93  A    between atoms: _238  and  _239
REMARK   94  A    between atoms: _238  and  _241
REMARK   95  A    between atoms: _241  and  _242
REMARK   96  A    between atoms: _246  and  _247
REMARK   97  A    between atoms: _253  and  _254
REMARK   98  A    between atoms: _259  and  _261
REMARK   99  A    between atoms: _261  and  _262
REMARK  100  A    between atoms: _261  and  _264
REMARK  101  A    between atoms: _264  and  _265
REMARK  102  A    between atoms: _268  and  _270
REMARK  103  A    between atoms: _270  and  _271
REMARK  104  A    between atoms: _270  and  _273
REMARK  105  A    between atoms: _273  and  _274
REMARK  106  A    between atoms: _277  and  _279
REMARK  107  A    between atoms: _279  and  _280
REMARK  108  A    between atoms: _279  and  _282
REMARK  109  A    between atoms: _285  and  _287
REMARK  110  A    between atoms: _287  and  _288
REMARK  111  A    between atoms: _287  and  _290
REMARK  112  A    between atoms: _290  and  _291
REMARK                            x       y       z     vdW  Elec       q    Type
REMARK                         _______ _______ _______ _____ _____    ______ ____
ROOT
ATOM      1  O   HOH     1      19.784  -4.159  15.731  0.00  0.00    +0.000 OA
ENDROOT
TORSDOF 0
REMARK  Name = ../refined-set-2016/4e3g/4e3g_pocket.pdb
REMARK  112 active torsions:
REMARK  status: ('A' for Active; 'I' for Inactive)
REMARK    1  A    between atoms: _1  and  _3
REMARK    2  A    between atoms: _3  and  _4
REMARK    3  A    between atoms: _3  and  _6
REMARK    4  A    between atoms: _6  and  _7
REMARK    5  A    between atoms: _17  and  _19
REMARK    6  A    between atoms: _19  and  _20
REMARK    7  A    between atoms: _19  and  _22
REMARK    8  A    between atoms: _22  and  _23
REMARK    9  A    between atoms: _28  and  _29
REMARK   10  A    between atoms: _31  and  _33
REMARK   11  A    between atoms: _33  and  _34
REMARK   12  A    between atoms: _33  and  _36
REMARK   13  A    between atoms: _36  and  _37
REMARK   14  A    between atoms: _47  and  _49
REMARK   15  A    between atoms: _49  and  _50
REMARK   16  A    between atoms: _49  and  _52
REMARK   17  A    between atoms: _52  and  _53
REMARK   18  A    between atoms: _58  and  _60
REMARK   19  A    between atoms: _60  and  _61
REMARK   20  A    between atoms: _60  and  _63
REMARK   21  A    between atoms: _63  and  _64
REMARK   22  A    between atoms: _69  and  _71
REMARK   23  A    between atoms: _71  and  _72
REMARK   24  A    between atoms: _71  and  _74
REMARK   25  A    between atoms: _74  and  _75
REMARK   26  A    between atoms: _78  and  _80
REMARK   27  A    between atoms: _80  and  _81
REMARK   28  A    between atoms: _80  and  _83
REMARK   29  A    between atoms: _83  and  _84
REMARK   30  A    between atoms: _84  and  _85
REMARK   31  A    between atoms: _90  and  _92
REMARK   32  A    between atoms: _92  and  _93
REMARK   33  A    between atoms: _92  and  _95
REMARK   34  A    between atoms: _95  and  _96
REMARK   35  A    between atoms: _102  and  _104
REMARK   36  A    between atoms: _104  and  _105
REMARK   37  A    between atoms: _104  and  _107
REMARK   38  A    between atoms: _107  and  _108
REMARK   39  A    between atoms: _112  and  ZN_301
REMARK   40  A    between atoms: _113  and  _115
REMARK   41  A    between atoms: _115  and  _116
REMARK   42  A    between atoms: _115  and  _118
REMARK   43  A    between atoms: _118  and  _119
REMARK   44  A    between atoms: _123  and  ZN_301
REMARK   45  A    between atoms: _124  and  _126
REMARK   46  A    between atoms: _126  and  _127
REMARK   47  A    between atoms: _126  and  _129
REMARK   48  A    between atoms: _129  and  _130
REMARK   49  A    between atoms: _130  and  _131
REMARK   50  A    between atoms: _134  and  _136
REMARK   51  A    between atoms: _136  and  _137
REMARK   52  A    between atoms: _136  and  _139
REMARK   53  A    between atoms: _139  and  _140
REMARK   54  A    between atoms: _141  and  ZN_301
REMARK   55  A    between atoms: _145  and  _147
REMARK   56  A    between atoms: _147  and  _148
REMARK   57  A    between atoms: _147  and  _150
REMARK   58  A    between atoms: _150  and  _151
REMARK   59  A    between atoms: _154  and  _156
REMARK   60  A    between atoms: _156  and  _157
REMARK   61  A    between atoms: _156  and  _159
REMARK   62  A    between atoms: _162  and  _164
REMARK   63  A    between atoms: _164  and  _165
REMARK   64  A    between atoms: _164  and  _167
REMARK   65  A    between atoms: _167  and  _168
REMARK   66  A    between atoms: _173  and  _175
REMARK   67  A    between atoms: _175  and  _176
REMARK   68  A    between atoms: _175  and  _178
REMARK   69  A    between atoms: _178  and  _179
REMARK   70  A    between atoms: _185  and  _187
REMARK   71  A    between atoms: _187  and  _188
REMARK   72  A    between atoms: _187  and  _190
REMARK   73  A    between atoms: _193  and  _195
REMARK   74  A    between atoms: _195  and  _196
REMARK   75  A    between atoms: _195  and  _198
REMARK   76  A    between atoms: _198  and  _199
REMARK   77  A    between atoms: _202  and  _204
REMARK   78  A    between atoms: _204  and  _205
REMARK   79  A    between atoms: _204  and  _207
REMARK   80  A    between atoms: _210  and  _212
REMARK   81  A    between atoms: _212  and  _213
REMARK   82  A    between atoms: _212  and  _215
REMARK   83  A    between atoms: _215  and  _216
REMARK   84  A    between atoms: _218  and  _220
REMARK   85  A    between atoms: _220  and  _221
REMARK   86  A    between atoms: _220  and  _223
REMARK   87  A    between atoms: _223  and  _224
REMARK   88  A    between atoms: _227  and  _229
REMARK   89  A    between atoms: _229  and  _230
REMARK   90  A    between atoms: _229  and  _232
REMARK   91  A    between atoms: _232  and  _233
REMARK   92  A    between atoms: _236  and  _238
REMARK   93  A    between atoms: _238  and  _239
REMARK   94  A    between atoms: _238  and  _241
REMARK   95  A    between atoms: _241  and  _242
REMARK   96  A    between atoms: _246  and  _247
REMARK   97  A    between atoms: _253  and  _254
REMARK   98  A    between atoms: _259  and  _261
REMARK   99  A    between atoms: _261  and  _262
REMARK  100  A    between atoms: _261  and  _264
REMARK  101  A    between atoms: _264  and  _265
REMARK  102  A    between atoms: _268  and  _270
REMARK  103  A    between atoms: _270  and  _271
REMARK  104  A    between atoms: _270  and  _273
REMARK  105  A    between atoms: _273  and  _274
REMARK  106  A    between atoms: _277  and  _279
REMARK  107  A    between atoms: _279  and  _280
REMARK  108  A    between atoms: _279  and  _282
REMARK  109  A    between atoms: _285  and  _287
REMARK  110  A    between atoms: _287  and  _288
REMARK  111  A    between atoms: _287  and  _290
REMARK  112  A    between atoms: _290  and  _291
REMARK                            x       y       z     vdW  Elec       q    Type
REMARK                         _______ _______ _______ _____ _____    ______ ____
ROOT
ATOM      1  O   HOH     1      18.734  -3.421  11.249  0.00  0.00    +0.000 OA
ENDROOT
TORSDOF 0
REMARK  Name = ../refined-set-2016/4e3g/4e3g_pocket.pdb
REMARK  112 active torsions:
REMARK  status: ('A' for Active; 'I' for Inactive)
REMARK    1  A    between atoms: _1  and  _3
REMARK    2  A    between atoms: _3  and  _4
REMARK    3  A    between atoms: _3  and  _6
REMARK    4  A    between atoms: _6  and  _7
REMARK    5  A    between atoms: _17  and  _19
REMARK    6  A    between atoms: _19  and  _20
REMARK    7  A    between atoms: _19  and  _22
REMARK    8  A    between atoms: _22  and  _23
REMARK    9  A    between atoms: _28  and  _29
REMARK   10  A    between atoms: _31  and  _33
REMARK   11  A    between atoms: _33  and  _34
REMARK   12  A    between atoms: _33  and  _36
REMARK   13  A    between atoms: _36  and  _37
REMARK   14  A    between atoms: _47  and  _49
REMARK   15  A    between atoms: _49  and  _50
REMARK   16  A    between atoms: _49  and  _52
REMARK   17  A    between atoms: _52  and  _53
REMARK   18  A    between atoms: _58  and  _60
REMARK   19  A    between atoms: _60  and  _61
REMARK   20  A    between atoms: _60  and  _63
REMARK   21  A    between atoms: _63  and  _64
REMARK   22  A    between atoms: _69  and  _71
REMARK   23  A    between atoms: _71  and  _72
REMARK   24  A    between atoms: _71  and  _74
REMARK   25  A    between atoms: _74  and  _75
REMARK   26  A    between atoms: _78  and  _80
REMARK   27  A    between atoms: _80  and  _81
REMARK   28  A    between atoms: _80  and  _83
REMARK   29  A    between atoms: _83  and  _84
REMARK   30  A    between atoms: _84  and  _85
REMARK   31  A    between atoms: _90  and  _92
REMARK   32  A    between atoms: _92  and  _93
REMARK   33  A    between atoms: _92  and  _95
REMARK   34  A    between atoms: _95  and  _96
REMARK   35  A    between atoms: _102  and  _104
REMARK   36  A    between atoms: _104  and  _105
REMARK   37  A    between atoms: _104  and  _107
REMARK   38  A    between atoms: _107  and  _108
REMARK   39  A    between atoms: _112  and  ZN_301
REMARK   40  A    between atoms: _113  and  _115
REMARK   41  A    between atoms: _115  and  _116
REMARK   42  A    between atoms: _115  and  _118
REMARK   43  A    between atoms: _118  and  _119
REMARK   44  A    between atoms: _123  and  ZN_301
REMARK   45  A    between atoms: _124  and  _126
REMARK   46  A    between atoms: _126  and  _127
REMARK   47  A    between atoms: _126  and  _129
REMARK   48  A    between atoms: _129  and  _130
REMARK   49  A    between atoms: _130  and  _131
REMARK   50  A    between atoms: _134  and  _136
REMARK   51  A    between atoms: _136  and  _137
REMARK   52  A    between atoms: _136  and  _139
REMARK   53  A    between atoms: _139  and  _140
REMARK   54  A    between atoms: _141  and  ZN_301
REMARK   55  A    between atoms: _145  and  _147
REMARK   56  A    between atoms: _147  and  _148
REMARK   57  A    between atoms: _147  and  _150
REMARK   58  A    between atoms: _150  and  _151
REMARK   59  A    between atoms: _154  and  _156
REMARK   60  A    between atoms: _156  and  _157
REMARK   61  A    between atoms: _156  and  _159
REMARK   62  A    between atoms: _162  and  _164
REMARK   63  A    between atoms: _164  and  _165
REMARK   64  A    between atoms: _164  and  _167
REMARK   65  A    between atoms: _167  and  _168
REMARK   66  A    between atoms: _173  and  _175
REMARK   67  A    between atoms: _175  and  _176
REMARK   68  A    between atoms: _175  and  _178
REMARK   69  A    between atoms: _178  and  _179
REMARK   70  A    between atoms: _185  and  _187
REMARK   71  A    between atoms: _187  and  _188
REMARK   72  A    between atoms: _187  and  _190
REMARK   73  A    between atoms: _193  and  _195
REMARK   74  A    between atoms: _195  and  _196
REMARK   75  A    between atoms: _195  and  _198
REMARK   76  A    between atoms: _198  and  _199
REMARK   77  A    between atoms: _202  and  _204
REMARK   78  A    between atoms: _204  and  _205
REMARK   79  A    between atoms: _204  and  _207
REMARK   80  A    between atoms: _210  and  _212
REMARK   81  A    between atoms: _212  and  _213
REMARK   82  A    between atoms: _212  and  _215
REMARK   83  A    between atoms: _215  and  _216
REMARK   84  A    between atoms: _218  and  _220
REMARK   85  A    between atoms: _220  and  _221
REMARK   86  A    between atoms: _220  and  _223
REMARK   87  A    between atoms: _223  and  _224
REMARK   88  A    between atoms: _227  and  _229
REMARK   89  A    between atoms: _229  and  _230
REMARK   90  A    between atoms: _229  and  _232
REMARK   91  A    between atoms: _232  and  _233
REMARK   92  A    between atoms: _236  and  _238
REMARK   93  A    between atoms: _238  and  _239
REMARK   94  A    between atoms: _238  and  _241
REMARK   95  A    between atoms: _241  and  _242
REMARK   96  A    between atoms: _246  and  _247
REMARK   97  A    between atoms: _253  and  _254
REMARK   98  A    between atoms: _259  and  _261
REMARK   99  A    between atoms: _261  and  _262
REMARK  100  A    between atoms: _261  and  _264
REMARK  101  A    between atoms: _264  and  _265
REMARK  102  A    between atoms: _268  and  _270
REMARK  103  A    between atoms: _270  and  _271
REMARK  104  A    between atoms: _270  and  _273
REMARK  105  A    between atoms: _273  and  _274
REMARK  106  A    between atoms: _277  and  _279
REMARK  107  A    between atoms: _279  and  _280
REMARK  108  A    between atoms: _279  and  _282
REMARK  109  A    between atoms: _285  and  _287
REMARK  110  A    between atoms: _287  and  _288
REMARK  111  A    between atoms: _287  and  _290
REMARK  112  A    between atoms: _290  and  _291
REMARK                            x       y       z     vdW  Elec       q    Type
REMARK                         _______ _______ _______ _____ _____    ______ ____
ROOT
ATOM      1  O   HOH     1      14.331   5.782   6.402  0.00  0.00    +0.000 OA
ENDROOT
TORSDOF 0
REMARK  Name = ../refined-set-2016/4e3g/4e3g_pocket.pdb
REMARK  112 active torsions:
REMARK  status: ('A' for Active; 'I' for Inactive)
REMARK    1  A    between atoms: _1  and  _3
REMARK    2  A    between atoms: _3  and  _4
REMARK    3  A    between atoms: _3  and  _6
REMARK    4  A    between atoms: _6  and  _7
REMARK    5  A    between atoms: _17  and  _19
REMARK    6  A    between atoms: _19  and  _20
REMARK    7  A    between atoms: _19  and  _22
REMARK    8  A    between atoms: _22  and  _23
REMARK    9  A    between atoms: _28  and  _29
REMARK   10  A    between atoms: _31  and  _33
REMARK   11  A    between atoms: _33  and  _34
REMARK   12  A    between atoms: _33  and  _36
REMARK   13  A    between atoms: _36  and  _37
REMARK   14  A    between atoms: _47  and  _49
REMARK   15  A    between atoms: _49  and  _50
REMARK   16  A    between atoms: _49  and  _52
REMARK   17  A    between atoms: _52  and  _53
REMARK   18  A    between atoms: _58  and  _60
REMARK   19  A    between atoms: _60  and  _61
REMARK   20  A    between atoms: _60  and  _63
REMARK   21  A    between atoms: _63  and  _64
REMARK   22  A    between atoms: _69  and  _71
REMARK   23  A    between atoms: _71  and  _72
REMARK   24  A    between atoms: _71  and  _74
REMARK   25  A    between atoms: _74  and  _75
REMARK   26  A    between atoms: _78  and  _80
REMARK   27  A    between atoms: _80  and  _81
REMARK   28  A    between atoms: _80  and  _83
REMARK   29  A    between atoms: _83  and  _84
REMARK   30  A    between atoms: _84  and  _85
REMARK   31  A    between atoms: _90  and  _92
REMARK   32  A    between atoms: _92  and  _93
REMARK   33  A    between atoms: _92  and  _95
REMARK   34  A    between atoms: _95  and  _96
REMARK   35  A    between atoms: _102  and  _104
REMARK   36  A    between atoms: _104  and  _105
REMARK   37  A    between atoms: _104  and  _107
REMARK   38  A    between atoms: _107  and  _108
REMARK   39  A    between atoms: _112  and  ZN_301
REMARK   40  A    between atoms: _113  and  _115
REMARK   41  A    between atoms: _115  and  _116
REMARK   42  A    between atoms: _115  and  _118
REMARK   43  A    between atoms: _118  and  _119
REMARK   44  A    between atoms: _123  and  ZN_301
REMARK   45  A    between atoms: _124  and  _126
REMARK   46  A    between atoms: _126  and  _127
REMARK   47  A    between atoms: _126  and  _129
REMARK   48  A    between atoms: _129  and  _130
REMARK   49  A    between atoms: _130  and  _131
REMARK   50  A    between atoms: _134  and  _136
REMARK   51  A    between atoms: _136  and  _137
REMARK   52  A    between atoms: _136  and  _139
REMARK   53  A    between atoms: _139  and  _140
REMARK   54  A    between atoms: _141  and  ZN_301
REMARK   55  A    between atoms: _145  and  _147
REMARK   56  A    between atoms: _147  and  _148
REMARK   57  A    between atoms: _147  and  _150
REMARK   58  A    between atoms: _150  and  _151
REMARK   59  A    between atoms: _154  and  _156
REMARK   60  A    between atoms: _156  and  _157
REMARK   61  A    between atoms: _156  and  _159
REMARK   62  A    between atoms: _162  and  _164
REMARK   63  A    between atoms: _164  and  _165
REMARK   64  A    between atoms: _164  and  _167
REMARK   65  A    between atoms: _167  and  _168
REMARK   66  A    between atoms: _173  and  _175
REMARK   67  A    between atoms: _175  and  _176
REMARK   68  A    between atoms: _175  and  _178
REMARK   69  A    between atoms: _178  and  _179
REMARK   70  A    between atoms: _185  and  _187
REMARK   71  A    between atoms: _187  and  _188
REMARK   72  A    between atoms: _187  and  _190
REMARK   73  A    between atoms: _193  and  _195
REMARK   74  A    between atoms: _195  and  _196
REMARK   75  A    between atoms: _195  and  _198
REMARK   76  A    between atoms: _198  and  _199
REMARK   77  A    between atoms: _202  and  _204
REMARK   78  A    between atoms: _204  and  _205
REMARK   79  A    between atoms: _204  and  _207
REMARK   80  A    between atoms: _210  and  _212
REMARK   81  A    between atoms: _212  and  _213
REMARK   82  A    between atoms: _212  and  _215
REMARK   83  A    between atoms: _215  and  _216
REMARK   84  A    between atoms: _218  and  _220
REMARK   85  A    between atoms: _220  and  _221
REMARK   86  A    between atoms: _220  and  _223
REMARK   87  A    between atoms: _223  and  _224
REMARK   88  A    between atoms: _227  and  _229
REMARK   89  A    between atoms: _229  and  _230
REMARK   90  A    between atoms: _229  and  _232
REMARK   91  A    between atoms: _232  and  _233
REMARK   92  A    between atoms: _236  and  _238
REMARK   93  A    between atoms: _238  and  _239
REMARK   94  A    between atoms: _238  and  _241
REMARK   95  A    between atoms: _241  and  _242
REMARK   96  A    between atoms: _246  and  _247
REMARK   97  A    between atoms: _253  and  _254
REMARK   98  A    between atoms: _259  and  _261
REMARK   99  A    between atoms: _261  and  _262
REMARK  100  A    between atoms: _261  and  _264
REMARK  101  A    between atoms: _264  and  _265
REMARK  102  A    between atoms: _268  and  _270
REMARK  103  A    between atoms: _270  and  _271
REMARK  104  A    between atoms: _270  and  _273
REMARK  105  A    between atoms: _273  and  _274
REMARK  106  A    between atoms: _277  and  _279
REMARK  107  A    between atoms: _279  and  _280
REMARK  108  A    between atoms: _279  and  _282
REMARK  109  A    between atoms: _285  and  _287
REMARK  110  A    between atoms: _287  and  _288
REMARK  111  A    between atoms: _287  and  _290
REMARK  112  A    between atoms: _290  and  _291
REMARK                            x       y       z     vdW  Elec       q    Type
REMARK                         _______ _______ _______ _____ _____    ______ ____
ROOT
ATOM      1  O   HOH     1      17.387   5.329  10.078  0.00  0.00    +0.000 OA
ENDROOT
TORSDOF 0
REMARK  Name = ../refined-set-2016/4e3g/4e3g_pocket.pdb
REMARK  112 active torsions:
REMARK  status: ('A' for Active; 'I' for Inactive)
REMARK    1  A    between atoms: _1  and  _3
REMARK    2  A    between atoms: _3  and  _4
REMARK    3  A    between atoms: _3  and  _6
REMARK    4  A    between atoms: _6  and  _7
REMARK    5  A    between atoms: _17  and  _19
REMARK    6  A    between atoms: _19  and  _20
REMARK    7  A    between atoms: _19  and  _22
REMARK    8  A    between atoms: _22  and  _23
REMARK    9  A    between atoms: _28  and  _29
REMARK   10  A    between atoms: _31  and  _33
REMARK   11  A    between atoms: _33  and  _34
REMARK   12  A    between atoms: _33  and  _36
REMARK   13  A    between atoms: _36  and  _37
REMARK   14  A    between atoms: _47  and  _49
REMARK   15  A    between atoms: _49  and  _50
REMARK   16  A    between atoms: _49  and  _52
REMARK   17  A    between atoms: _52  and  _53
REMARK   18  A    between atoms: _58  and  _60
REMARK   19  A    between atoms: _60  and  _61
REMARK   20  A    between atoms: _60  and  _63
REMARK   21  A    between atoms: _63  and  _64
REMARK   22  A    between atoms: _69  and  _71
REMARK   23  A    between atoms: _71  and  _72
REMARK   24  A    between atoms: _71  and  _74
REMARK   25  A    between atoms: _74  and  _75
REMARK   26  A    between atoms: _78  and  _80
REMARK   27  A    between atoms: _80  and  _81
REMARK   28  A    between atoms: _80  and  _83
REMARK   29  A    between atoms: _83  and  _84
REMARK   30  A    between atoms: _84  and  _85
REMARK   31  A    between atoms: _90  and  _92
REMARK   32  A    between atoms: _92  and  _93
REMARK   33  A    between atoms: _92  and  _95
REMARK   34  A    between atoms: _95  and  _96
REMARK   35  A    between atoms: _102  and  _104
REMARK   36  A    between atoms: _104  and  _105
REMARK   37  A    between atoms: _104  and  _107
REMARK   38  A    between atoms: _107  and  _108
REMARK   39  A    between atoms: _112  and  ZN_301
REMARK   40  A    between atoms: _113  and  _115
REMARK   41  A    between atoms: _115  and  _116
REMARK   42  A    between atoms: _115  and  _118
REMARK   43  A    between atoms: _118  and  _119
REMARK   44  A    between atoms: _123  and  ZN_301
REMARK   45  A    between atoms: _124  and  _126
REMARK   46  A    between atoms: _126  and  _127
REMARK   47  A    between atoms: _126  and  _129
REMARK   48  A    between atoms: _129  and  _130
REMARK   49  A    between atoms: _130  and  _131
REMARK   50  A    between atoms: _134  and  _136
REMARK   51  A    between atoms: _136  and  _137
REMARK   52  A    between atoms: _136  and  _139
REMARK   53  A    between atoms: _139  and  _140
REMARK   54  A    between atoms: _141  and  ZN_301
REMARK   55  A    between atoms: _145  and  _147
REMARK   56  A    between atoms: _147  and  _148
REMARK   57  A    between atoms: _147  and  _150
REMARK   58  A    between atoms: _150  and  _151
REMARK   59  A    between atoms: _154  and  _156
REMARK   60  A    between atoms: _156  and  _157
REMARK   61  A    between atoms: _156  and  _159
REMARK   62  A    between atoms: _162  and  _164
REMARK   63  A    between atoms: _164  and  _165
REMARK   64  A    between atoms: _164  and  _167
REMARK   65  A    between atoms: _167  and  _168
REMARK   66  A    between atoms: _173  and  _175
REMARK   67  A    between atoms: _175  and  _176
REMARK   68  A    between atoms: _175  and  _178
REMARK   69  A    between atoms: _178  and  _179
REMARK   70  A    between atoms: _185  and  _187
REMARK   71  A    between atoms: _187  and  _188
REMARK   72  A    between atoms: _187  and  _190
REMARK   73  A    between atoms: _193  and  _195
REMARK   74  A    between atoms: _195  and  _196
REMARK   75  A    between atoms: _195  and  _198
REMARK   76  A    between atoms: _198  and  _199
REMARK   77  A    between atoms: _202  and  _204
REMARK   78  A    between atoms: _204  and  _205
REMARK   79  A    between atoms: _204  and  _207
REMARK   80  A    between atoms: _210  and  _212
REMARK   81  A    between atoms: _212  and  _213
REMARK   82  A    between atoms: _212  and  _215
REMARK   83  A    between atoms: _215  and  _216
REMARK   84  A    between atoms: _218  and  _220
REMARK   85  A    between atoms: _220  and  _221
REMARK   86  A    between atoms: _220  and  _223
REMARK   87  A    between atoms: _223  and  _224
REMARK   88  A    between atoms: _227  and  _229
REMARK   89  A    between atoms: _229  and  _230
REMARK   90  A    between atoms: _229  and  _232
REMARK   91  A    between atoms: _232  and  _233
REMARK   92  A    between atoms: _236  and  _238
REMARK   93  A    between atoms: _238  and  _239
REMARK   94  A    between atoms: _238  and  _241
REMARK   95  A    between atoms: _241  and  _242
REMARK   96  A    between atoms: _246  and  _247
REMARK   97  A    between atoms: _253  and  _254
REMARK   98  A    between atoms: _259  and  _261
REMARK   99  A    between atoms: _261  and  _262
REMARK  100  A    between atoms: _261  and  _264
REMARK  101  A    between atoms: _264  and  _265
REMARK  102  A    between atoms: _268  and  _270
REMARK  103  A    between atoms: _270  and  _271
REMARK  104  A    between atoms: _270  and  _273
REMARK  105  A    between atoms: _273  and  _274
REMARK  106  A    between atoms: _277  and  _279
REMARK  107  A    between atoms: _279  and  _280
REMARK  108  A    between atoms: _279  and  _282
REMARK  109  A    between atoms: _285  and  _287
REMARK  110  A    between atoms: _287  and  _288
REMARK  111  A    between atoms: _287  and  _290
REMARK  112  A    between atoms: _290  and  _291
REMARK                            x       y       z     vdW  Elec       q    Type
REMARK                         _______ _______ _______ _____ _____    ______ ____
ROOT
ATOM      1  O   HOH     1      12.813   7.568   8.380  0.00  0.00    +0.000 OA
ENDROOT
TORSDOF 0
REMARK  Name = ../refined-set-2016/4e3g/4e3g_pocket.pdb
REMARK  112 active torsions:
REMARK  status: ('A' for Active; 'I' for Inactive)
REMARK    1  A    between atoms: _1  and  _3
REMARK    2  A    between atoms: _3  and  _4
REMARK    3  A    between atoms: _3  and  _6
REMARK    4  A    between atoms: _6  and  _7
REMARK    5  A    between atoms: _17  and  _19
REMARK    6  A    between atoms: _19  and  _20
REMARK    7  A    between atoms: _19  and  _22
REMARK    8  A    between atoms: _22  and  _23
REMARK    9  A    between atoms: _28  and  _29
REMARK   10  A    between atoms: _31  and  _33
REMARK   11  A    between atoms: _33  and  _34
REMARK   12  A    between atoms: _33  and  _36
REMARK   13  A    between atoms: _36  and  _37
REMARK   14  A    between atoms: _47  and  _49
REMARK   15  A    between atoms: _49  and  _50
REMARK   16  A    between atoms: _49  and  _52
REMARK   17  A    between atoms: _52  and  _53
REMARK   18  A    between atoms: _58  and  _60
REMARK   19  A    between atoms: _60  and  _61
REMARK   20  A    between atoms: _60  and  _63
REMARK   21  A    between atoms: _63  and  _64
REMARK   22  A    between atoms: _69  and  _71
REMARK   23  A    between atoms: _71  and  _72
REMARK   24  A    between atoms: _71  and  _74
REMARK   25  A    between atoms: _74  and  _75
REMARK   26  A    between atoms: _78  and  _80
REMARK   27  A    between atoms: _80  and  _81
REMARK   28  A    between atoms: _80  and  _83
REMARK   29  A    between atoms: _83  and  _84
REMARK   30  A    between atoms: _84  and  _85
REMARK   31  A    between atoms: _90  and  _92
REMARK   32  A    between atoms: _92  and  _93
REMARK   33  A    between atoms: _92  and  _95
REMARK   34  A    between atoms: _95  and  _96
REMARK   35  A    between atoms: _102  and  _104
REMARK   36  A    between atoms: _104  and  _105
REMARK   37  A    between atoms: _104  and  _107
REMARK   38  A    between atoms: _107  and  _108
REMARK   39  A    between atoms: _112  and  ZN_301
REMARK   40  A    between atoms: _113  and  _115
REMARK   41  A    between atoms: _115  and  _116
REMARK   42  A    between atoms: _115  and  _118
REMARK   43  A    between atoms: _118  and  _119
REMARK   44  A    between atoms: _123  and  ZN_301
REMARK   45  A    between atoms: _124  and  _126
REMARK   46  A    between atoms: _126  and  _127
REMARK   47  A    between atoms: _126  and  _129
REMARK   48  A    between atoms: _129  and  _130
REMARK   49  A    between atoms: _130  and  _131
REMARK   50  A    between atoms: _134  and  _136
REMARK   51  A    between atoms: _136  and  _137
REMARK   52  A    between atoms: _136  and  _139
REMARK   53  A    between atoms: _139  and  _140
REMARK   54  A    between atoms: _141  and  ZN_301
REMARK   55  A    between atoms: _145  and  _147
REMARK   56  A    between atoms: _147  and  _148
REMARK   57  A    between atoms: _147  and  _150
REMARK   58  A    between atoms: _150  and  _151
REMARK   59  A    between atoms: _154  and  _156
REMARK   60  A    between atoms: _156  and  _157
REMARK   61  A    between atoms: _156  and  _159
REMARK   62  A    between atoms: _162  and  _164
REMARK   63  A    between atoms: _164  and  _165
REMARK   64  A    between atoms: _164  and  _167
REMARK   65  A    between atoms: _167  and  _168
REMARK   66  A    between atoms: _173  and  _175
REMARK   67  A    between atoms: _175  and  _176
REMARK   68  A    between atoms: _175  and  _178
REMARK   69  A    between atoms: _178  and  _179
REMARK   70  A    between atoms: _185  and  _187
REMARK   71  A    between atoms: _187  and  _188
REMARK   72  A    between atoms: _187  and  _190
REMARK   73  A    between atoms: _193  and  _195
REMARK   74  A    between atoms: _195  and  _196
REMARK   75  A    between atoms: _195  and  _198
REMARK   76  A    between atoms: _198  and  _199
REMARK   77  A    between atoms: _202  and  _204
REMARK   78  A    between atoms: _204  and  _205
REMARK   79  A    between atoms: _204  and  _207
REMARK   80  A    between atoms: _210  and  _212
REMARK   81  A    between atoms: _212  and  _213
REMARK   82  A    between atoms: _212  and  _215
REMARK   83  A    between atoms: _215  and  _216
REMARK   84  A    between atoms: _218  and  _220
REMARK   85  A    between atoms: _220  and  _221
REMARK   86  A    between atoms: _220  and  _223
REMARK   87  A    between atoms: _223  and  _224
REMARK   88  A    between atoms: _227  and  _229
REMARK   89  A    between atoms: _229  and  _230
REMARK   90  A    between atoms: _229  and  _232
REMARK   91  A    between atoms: _232  and  _233
REMARK   92  A    between atoms: _236  and  _238
REMARK   93  A    between atoms: _238  and  _239
REMARK   94  A    between atoms: _238  and  _241
REMARK   95  A    between atoms: _241  and  _242
REMARK   96  A    between atoms: _246  and  _247
REMARK   97  A    between atoms: _253  and  _254
REMARK   98  A    between atoms: _259  and  _261
REMARK   99  A    between atoms: _261  and  _262
REMARK  100  A    between atoms: _261  and  _264
REMARK  101  A    between atoms: _264  and  _265
REMARK  102  A    between atoms: _268  and  _270
REMARK  103  A    between atoms: _270  and  _271
REMARK  104  A    between atoms: _270  and  _273
REMARK  105  A    between atoms: _273  and  _274
REMARK  106  A    between atoms: _277  and  _279
REMARK  107  A    between atoms: _279  and  _280
REMARK  108  A    between atoms: _279  and  _282
REMARK  109  A    between atoms: _285  and  _287
REMARK  110  A    between atoms: _287  and  _288
REMARK  111  A    between atoms: _287  and  _290
REMARK  112  A    between atoms: _290  and  _291
REMARK                            x       y       z     vdW  Elec       q    Type
REMARK                         _______ _______ _______ _____ _____    ______ ____
ROOT
ATOM      1  O   HOH     1      20.175   1.214  10.182  0.00  0.00    +0.000 OA
ENDROOT
TORSDOF 0
REMARK  Name = ../refined-set-2016/4e3g/4e3g_pocket.pdb
REMARK  112 active torsions:
REMARK  status: ('A' for Active; 'I' for Inactive)
REMARK    1  A    between atoms: _1  and  _3
REMARK    2  A    between atoms: _3  and  _4
REMARK    3  A    between atoms: _3  and  _6
REMARK    4  A    between atoms: _6  and  _7
REMARK    5  A    between atoms: _17  and  _19
REMARK    6  A    between atoms: _19  and  _20
REMARK    7  A    between atoms: _19  and  _22
REMARK    8  A    between atoms: _22  and  _23
REMARK    9  A    between atoms: _28  and  _29
REMARK   10  A    between atoms: _31  and  _33
REMARK   11  A    between atoms: _33  and  _34
REMARK   12  A    between atoms: _33  and  _36
REMARK   13  A    between atoms: _36  and  _37
REMARK   14  A    between atoms: _47  and  _49
REMARK   15  A    between atoms: _49  and  _50
REMARK   16  A    between atoms: _49  and  _52
REMARK   17  A    between atoms: _52  and  _53
REMARK   18  A    between atoms: _58  and  _60
REMARK   19  A    between atoms: _60  and  _61
REMARK   20  A    between atoms: _60  and  _63
REMARK   21  A    between atoms: _63  and  _64
REMARK   22  A    between atoms: _69  and  _71
REMARK   23  A    between atoms: _71  and  _72
REMARK   24  A    between atoms: _71  and  _74
REMARK   25  A    between atoms: _74  and  _75
REMARK   26  A    between atoms: _78  and  _80
REMARK   27  A    between atoms: _80  and  _81
REMARK   28  A    between atoms: _80  and  _83
REMARK   29  A    between atoms: _83  and  _84
REMARK   30  A    between atoms: _84  and  _85
REMARK   31  A    between atoms: _90  and  _92
REMARK   32  A    between atoms: _92  and  _93
REMARK   33  A    between atoms: _92  and  _95
REMARK   34  A    between atoms: _95  and  _96
REMARK   35  A    between atoms: _102  and  _104
REMARK   36  A    between atoms: _104  and  _105
REMARK   37  A    between atoms: _104  and  _107
REMARK   38  A    between atoms: _107  and  _108
REMARK   39  A    between atoms: _112  and  ZN_301
REMARK   40  A    between atoms: _113  and  _115
REMARK   41  A    between atoms: _115  and  _116
REMARK   42  A    between atoms: _115  and  _118
REMARK   43  A    between atoms: _118  and  _119
REMARK   44  A    between atoms: _123  and  ZN_301
REMARK   45  A    between atoms: _124  and  _126
REMARK   46  A    between atoms: _126  and  _127
REMARK   47  A    between atoms: _126  and  _129
REMARK   48  A    between atoms: _129  and  _130
REMARK   49  A    between atoms: _130  and  _131
REMARK   50  A    between atoms: _134  and  _136
REMARK   51  A    between atoms: _136  and  _137
REMARK   52  A    between atoms: _136  and  _139
REMARK   53  A    between atoms: _139  and  _140
REMARK   54  A    between atoms: _141  and  ZN_301
REMARK   55  A    between atoms: _145  and  _147
REMARK   56  A    between atoms: _147  and  _148
REMARK   57  A    between atoms: _147  and  _150
REMARK   58  A    between atoms: _150  and  _151
REMARK   59  A    between atoms: _154  and  _156
REMARK   60  A    between atoms: _156  and  _157
REMARK   61  A    between atoms: _156  and  _159
REMARK   62  A    between atoms: _162  and  _164
REMARK   63  A    between atoms: _164  and  _165
REMARK   64  A    between atoms: _164  and  _167
REMARK   65  A    between atoms: _167  and  _168
REMARK   66  A    between atoms: _173  and  _175
REMARK   67  A    between atoms: _175  and  _176
REMARK   68  A    between atoms: _175  and  _178
REMARK   69  A    between atoms: _178  and  _179
REMARK   70  A    between atoms: _185  and  _187
REMARK   71  A    between atoms: _187  and  _188
REMARK   72  A    between atoms: _187  and  _190
REMARK   73  A    between atoms: _193  and  _195
REMARK   74  A    between atoms: _195  and  _196
REMARK   75  A    between atoms: _195  and  _198
REMARK   76  A    between atoms: _198  and  _199
REMARK   77  A    between atoms: _202  and  _204
REMARK   78  A    between atoms: _204  and  _205
REMARK   79  A    between atoms: _204  and  _207
REMARK   80  A    between atoms: _210  and  _212
REMARK   81  A    between atoms: _212  and  _213
REMARK   82  A    between atoms: _212  and  _215
REMARK   83  A    between atoms: _215  and  _216
REMARK   84  A    between atoms: _218  and  _220
REMARK   85  A    between atoms: _220  and  _221
REMARK   86  A    between atoms: _220  and  _223
REMARK   87  A    between atoms: _223  and  _224
REMARK   88  A    between atoms: _227  and  _229
REMARK   89  A    between atoms: _229  and  _230
REMARK   90  A    between atoms: _229  and  _232
REMARK   91  A    between atoms: _232  and  _233
REMARK   92  A    between atoms: _236  and  _238
REMARK   93  A    between atoms: _238  and  _239
REMARK   94  A    between atoms: _238  and  _241
REMARK   95  A    between atoms: _241  and  _242
REMARK   96  A    between atoms: _246  and  _247
REMARK   97  A    between atoms: _253  and  _254
REMARK   98  A    between atoms: _259  and  _261
REMARK   99  A    between atoms: _261  and  _262
REMARK  100  A    between atoms: _261  and  _264
REMARK  101  A    between atoms: _264  and  _265
REMARK  102  A    between atoms: _268  and  _270
REMARK  103  A    between atoms: _270  and  _271
REMARK  104  A    between atoms: _270  and  _273
REMARK  105  A    between atoms: _273  and  _274
REMARK  106  A    between atoms: _277  and  _279
REMARK  107  A    between atoms: _279  and  _280
REMARK  108  A    between atoms: _279  and  _282
REMARK  109  A    between atoms: _285  and  _287
REMARK  110  A    between atoms: _287  and  _288
REMARK  111  A    between atoms: _287  and  _290
REMARK  112  A    between atoms: _290  and  _291
REMARK                            x       y       z     vdW  Elec       q    Type
REMARK                         _______ _______ _______ _____ _____    ______ ____
ROOT
ATOM      1  O   HOH     1      14.853   6.636  10.393  0.00  0.00    +0.000 OA
ENDROOT
TORSDOF 0
