REMARK  Name = ../refined-set-2016/3ijh/3ijh_pocket.pdb
REMARK  164 active torsions:
REMARK  status: ('A' for Active; 'I' for Inactive)
REMARK    1  A    between atoms: _1  and  _3
REMARK    2  A    between atoms: _3  and  _4
REMARK    3  A    between atoms: _3  and  _6
REMARK    4  A    between atoms: _6  and  _7
REMARK    5  A    between atoms: _10  and  _12
REMARK    6  A    between atoms: _12  and  _13
REMARK    7  A    between atoms: _12  and  _15
REMARK    8  A    between atoms: _15  and  _16
REMARK    9  A    between atoms: _19  and  _21
REMARK   10  A    between atoms: _21  and  _22
REMARK   11  A    between atoms: _21  and  _24
REMARK   12  A    between atoms: _24  and  _25
REMARK   13  A    between atoms: _30  and  _32
REMARK   14  A    between atoms: _32  and  _33
REMARK   15  A    between atoms: _32  and  _35
REMARK   16  A    between atoms: _35  and  _36
REMARK   17  A    between atoms: _38  and  _40
REMARK   18  A    between atoms: _40  and  _41
REMARK   19  A    between atoms: _40  and  _43
REMARK   20  A    between atoms: _43  and  _44
REMARK   21  A    between atoms: _44  and  _45
REMARK   22  A    between atoms: _45  and  _46
REMARK   23  A    between atoms: _55  and  _57
REMARK   24  A    between atoms: _57  and  _58
REMARK   25  A    between atoms: _57  and  _60
REMARK   26  A    between atoms: _60  and  _61
REMARK   27  A    between atoms: _64  and  _66
REMARK   28  A    between atoms: _66  and  _67
REMARK   29  A    between atoms: _66  and  _69
REMARK   30  A    between atoms: _69  and  _70
REMARK   31  A    between atoms: _70  and  _71
REMARK   32  A    between atoms: _71  and  _72
REMARK   33  A    between atoms: _72  and  _73
REMARK   34  A    between atoms: _77  and  _79
REMARK   35  A    between atoms: _79  and  _80
REMARK   36  A    between atoms: _79  and  _82
REMARK   37  A    between atoms: _82  and  _83
REMARK   38  A    between atoms: _88  and  _89
REMARK   39  A    between atoms: _91  and  _93
REMARK   40  A    between atoms: _93  and  _94
REMARK   41  A    between atoms: _93  and  _96
REMARK   42  A    between atoms: _96  and  _97
REMARK   43  A    between atoms: _107  and  _109
REMARK   44  A    between atoms: _109  and  _110
REMARK   45  A    between atoms: _109  and  _112
REMARK   46  A    between atoms: _112  and  _113
REMARK   47  A    between atoms: _113  and  _114
REMARK   48  A    between atoms: _114  and  _115
REMARK   49  A    between atoms: _115  and  _116
REMARK   50  A    between atoms: _120  and  _122
REMARK   51  A    between atoms: _122  and  _123
REMARK   52  A    between atoms: _122  and  _125
REMARK   53  A    between atoms: _125  and  _126
REMARK   54  A    between atoms: _126  and  _127
REMARK   55  A    between atoms: _132  and  _134
REMARK   56  A    between atoms: _134  and  _135
REMARK   57  A    between atoms: _134  and  _137
REMARK   58  A    between atoms: _137  and  _138
REMARK   59  A    between atoms: _140  and  _142
REMARK   60  A    between atoms: _142  and  _143
REMARK   61  A    between atoms: _142  and  _145
REMARK   62  A    between atoms: _145  and  _146
REMARK   63  A    between atoms: _151  and  _153
REMARK   64  A    between atoms: _153  and  _154
REMARK   65  A    between atoms: _153  and  _156
REMARK   66  A    between atoms: _156  and  _157
REMARK   67  A    between atoms: _162  and  _164
REMARK   68  A    between atoms: _164  and  _165
REMARK   69  A    between atoms: _164  and  _167
REMARK   70  A    between atoms: _167  and  _168
REMARK   71  A    between atoms: _171  and  _173
REMARK   72  A    between atoms: _173  and  _174
REMARK   73  A    between atoms: _173  and  _176
REMARK   74  A    between atoms: _176  and  _177
REMARK   75  A    between atoms: _177  and  _178
REMARK   76  A    between atoms: _178  and  _179
REMARK   77  A    between atoms: _188  and  _190
REMARK   78  A    between atoms: _190  and  _191
REMARK   79  A    between atoms: _190  and  _193
REMARK   80  A    between atoms: _193  and  _194
REMARK   81  A    between atoms: _199  and  _200
REMARK   82  A    between atoms: _202  and  _204
REMARK   83  A    between atoms: _204  and  _205
REMARK   84  A    between atoms: _204  and  _207
REMARK   85  A    between atoms: _207  and  _208
REMARK   86  A    between atoms: _210  and  _212
REMARK   87  A    between atoms: _212  and  _213
REMARK   88  A    between atoms: _212  and  _215
REMARK   89  A    between atoms: _215  and  _216
REMARK   90  A    between atoms: _226  and  _228
REMARK   91  A    between atoms: _228  and  _229
REMARK   92  A    between atoms: _228  and  _231
REMARK   93  A    between atoms: _231  and  _232
REMARK   94  A    between atoms: _238  and  _240
REMARK   95  A    between atoms: _240  and  _241
REMARK   96  A    between atoms: _240  and  _243
REMARK   97  A    between atoms: _243  and  _244
REMARK   98  A    between atoms: _244  and  _245
REMARK   99  A    between atoms: _245  and  _246
REMARK  100  A    between atoms: _255  and  _257
REMARK  101  A    between atoms: _257  and  _258
REMARK  102  A    between atoms: _257  and  _260
REMARK  103  A    between atoms: _260  and  _261
REMARK  104  A    between atoms: _266  and  _268
REMARK  105  A    between atoms: _268  and  _269
REMARK  106  A    between atoms: _272  and  _274
REMARK  107  A    between atoms: _274  and  _275
REMARK  108  A    between atoms: _274  and  _277
REMARK  109  A    between atoms: _277  and  _278
REMARK  110  A    between atoms: _278  and  _279
REMARK  111  A    between atoms: _279  and  _280
REMARK  112  A    between atoms: _280  and  _281
REMARK  113  A    between atoms: _285  and  _287
REMARK  114  A    between atoms: _287  and  _288
REMARK  115  A    between atoms: _287  and  _290
REMARK  116  A    between atoms: _290  and  _291
REMARK  117  A    between atoms: _294  and  _296
REMARK  118  A    between atoms: _296  and  _297
REMARK  119  A    between atoms: _296  and  _299
REMARK  120  A    between atoms: _299  and  _300
REMARK  121  A    between atoms: _300  and  _301
REMARK  122  A    between atoms: _304  and  _306
REMARK  123  A    between atoms: _306  and  _307
REMARK  124  A    between atoms: _306  and  _309
REMARK  125  A    between atoms: _309  and  _310
REMARK  126  A    between atoms: _313  and  _315
REMARK  127  A    between atoms: _315  and  _316
REMARK  128  A    between atoms: _315  and  _318
REMARK  129  A    between atoms: _318  and  _319
REMARK  130  A    between atoms: _322  and  _324
REMARK  131  A    between atoms: _324  and  _325
REMARK  132  A    between atoms: _324  and  _327
REMARK  133  A    between atoms: _327  and  _328
REMARK  134  A    between atoms: _331  and  _332
REMARK  135  A    between atoms: _337  and  _339
REMARK  136  A    between atoms: _339  and  _340
REMARK  137  A    between atoms: _339  and  _342
REMARK  138  A    between atoms: _342  and  _343
REMARK  139  A    between atoms: _345  and  _347
REMARK  140  A    between atoms: _347  and  _348
REMARK  141  A    between atoms: _347  and  _350
REMARK  142  A    between atoms: _350  and  _351
REMARK  143  A    between atoms: _356  and  _357
REMARK  144  A    between atoms: _359  and  _361
REMARK  145  A    between atoms: _361  and  _362
REMARK  146  A    between atoms: _361  and  _364
REMARK  147  A    between atoms: _364  and  _365
REMARK  148  A    between atoms: _370  and  _371
REMARK  149  A    between atoms: _373  and  _375
REMARK  150  A    between atoms: _375  and  _376
REMARK  151  A    between atoms: _375  and  _378
REMARK  152  A    between atoms: _378  and  _379
REMARK  153  A    between atoms: _384  and  _385
REMARK  154  A    between atoms: _387  and  _389
REMARK  155  A    between atoms: _389  and  _390
REMARK  156  A    between atoms: _389  and  _392
REMARK  157  A    between atoms: _392  and  _393
REMARK  158  A    between atoms: _393  and  _394
REMARK  159  A    between atoms: _397  and  _399
REMARK  160  A    between atoms: _399  and  _400
REMARK  161  A    between atoms: _402  and  _404
REMARK  162  A    between atoms: _404  and  _405
REMARK  163  A    between atoms: _404  and  _407
REMARK  164  A    between atoms: _407  and  _408
REMARK                            x       y       z     vdW  Elec       q    Type
REMARK                         _______ _______ _______ _____ _____    ______ ____
ROOT
ATOM      1  CA  SER A   4     -12.064  -1.989 -13.675  0.00  0.00    +0.178 C 
ENDROOT
BRANCH   1   3
ATOM      2  C   ASN A   3     -11.555  -3.559 -11.867  0.00  0.00    +0.241 C 
ATOM      3  N   SER A   4     -12.314  -2.581 -12.358  0.00  0.00    -0.295 N 
ATOM      4  H   SER A   4     -13.109  -2.226 -11.789  0.00  0.00    +0.150 HD
ATOM      5  O   ASN A   3     -10.551  -3.981 -12.441  0.00  0.00    -0.273 OA
BRANCH   2   6
ATOM      6  CA  ASN A   3     -11.999  -4.163 -10.532  0.00  0.00    +0.158 C 
BRANCH   6   8
ATOM      7  C   LEU A   2     -13.516  -5.945 -11.190  0.00  0.00    +0.241 C 
ATOM      8  N   ASN A   3     -12.336  -5.567 -10.713  0.00  0.00    -0.297 N 
ATOM      9  H   ASN A   3     -11.635  -6.293 -10.462  0.00  0.00    +0.150 HD
ATOM     10  O   LEU A   2     -14.426  -5.155 -11.424  0.00  0.00    -0.273 OA
BRANCH   7  11
ATOM     11  CA  LEU A   2     -13.705  -7.434 -11.425  0.00  0.00    +0.149 C 
BRANCH  11  14
ATOM     12  C   LEU A   1     -14.317  -8.226  -9.205  0.00  0.00    +0.238 C 
ATOM     13  O   LEU A   1     -13.184  -8.026  -8.756  0.00  0.00    -0.274 OA
ATOM     14  N   LEU A   2     -14.654  -7.985 -10.469  0.00  0.00    -0.297 N 
ATOM     15  H   LEU A   2     -15.623  -8.196 -10.783  0.00  0.00    +0.150 HD
BRANCH  12  16
ATOM     16  CA  LEU A   1     -15.428  -8.775  -8.314  0.00  0.00    +0.145 C 
BRANCH  16  17
ATOM     17  N   LEU A   1     -16.647  -9.012  -9.083  0.00  0.00    -0.238 NA
ATOM     18  H   LEU A   1     -16.710  -9.859  -9.683  0.00  0.00    +0.142 HD
ENDBRANCH  16  17
BRANCH  16  19
ATOM     19  CB  LEU A   1     -14.962 -10.066  -7.638  0.00  0.00    +0.026 C 
BRANCH  19  20
ATOM     20  CG  LEU A   1     -16.031 -10.794  -6.816  0.00  0.00    +0.002 C 
ATOM     21  CD2 LEU A   1     -16.740  -9.811  -5.896  0.00  0.00    +0.000 C 
ATOM     22  CD1 LEU A   1     -15.416 -11.951  -6.024  0.00  0.00    +0.000 C 
ENDBRANCH  19  20
ENDBRANCH  16  19
ENDBRANCH  12  16
ENDBRANCH  11  14
BRANCH  11  23
ATOM     23  CB  LEU A   2     -14.181  -7.678 -12.860  0.00  0.00    +0.029 C 
BRANCH  23  24
ATOM     24  CG  LEU A   2     -13.267  -7.141 -13.963  0.00  0.00    +0.002 C 
ATOM     25  CD2 LEU A   2     -11.889  -7.795 -13.887  0.00  0.00    +0.000 C 
ATOM     26  CD1 LEU A   2     -13.902  -7.376 -15.322  0.00  0.00    +0.000 C 
ENDBRANCH  23  24
ENDBRANCH  11  23
ENDBRANCH   7  11
ENDBRANCH   6   8
BRANCH   6  27
ATOM     27  CB  ASN A   3     -10.902  -4.020  -9.475  0.00  0.00    +0.114 C 
BRANCH  27  28
ATOM     28  CG  ASN A   3     -10.563  -2.575  -9.171  0.00  0.00    +0.222 C 
ATOM     29  ND2 ASN A   3     -10.326  -2.278  -7.896  0.00  0.00    -0.329 N 
ATOM     30 HD21 ASN A   3     -10.391  -3.019  -7.169  0.00  0.00    +0.145 HD
ATOM     31 HD22 ASN A   3     -10.076  -1.305  -7.627  0.00  0.00    +0.145 HD
ATOM     32  OD1 ASN A   3     -10.500  -1.738 -10.071  0.00  0.00    -0.275 OA
ENDBRANCH  27  28
ENDBRANCH   6  27
ENDBRANCH   2   6
ENDBRANCH   1   3
BRANCH   1  33
ATOM     33  C   SER A   4     -10.735  -1.246 -13.738  0.00  0.00    +0.243 C 
ATOM     34  N   ARG A   5     -10.287  -0.749 -12.592  0.00  0.00    -0.297 N 
ATOM     35  H   ARG A   5     -10.844  -0.896 -11.726  0.00  0.00    +0.150 HD
ATOM     36  O   SER A   4     -10.131  -1.125 -14.801  0.00  0.00    -0.273 OA
BRANCH  34  37
ATOM     37  CA  ARG A   5      -9.038  -0.003 -12.512  0.00  0.00    +0.149 C 
BRANCH  37  38
ATOM     38  C   ARG A   5      -7.823  -0.907 -12.689  0.00  0.00    +0.241 C 
ATOM     39  N   THR A   6      -7.789  -2.018 -11.960  0.00  0.00    -0.296 N 
ATOM     40  H   THR A   6      -8.580  -2.227 -11.318  0.00  0.00    +0.150 HD
ATOM     41  O   ARG A   5      -6.931  -0.602 -13.480  0.00  0.00    -0.273 OA
BRANCH  39  42
ATOM     42  CA  THR A   6      -6.669  -2.952 -12.038  0.00  0.00    +0.164 C 
BRANCH  42  43
ATOM     43  C   THR A   6      -6.895  -4.059 -13.073  0.00  0.00    +0.229 C 
ATOM     44  O   THR A   6      -5.959  -4.754 -13.462  0.00  0.00    -0.286 OA
ENDBRANCH  42  43
BRANCH  42  45
ATOM     45  CB  THR A   6      -6.391  -3.614 -10.673  0.00  0.00    +0.136 C 
ATOM     46  CG2 THR A   6      -5.917  -2.577  -9.656  0.00  0.00    +0.034 C 
BRANCH  45  47
ATOM     47  OG1 THR A   6      -7.586  -4.250 -10.197  0.00  0.00    -0.382 OA
ATOM     48  HG1 THR A   6      -7.406  -4.674  -9.321  0.00  0.00    +0.210 HD
ENDBRANCH  45  47
ENDBRANCH  42  45
ENDBRANCH  39  42
ENDBRANCH  37  38
BRANCH  37  49
ATOM     49  CB  ARG A   5      -8.955   0.757 -11.186  0.00  0.00    +0.033 C 
BRANCH  49  50
ATOM     50  CG  ARG A   5      -7.564   1.246 -10.820  0.00  0.00    +0.045 C 
BRANCH  50  51
ATOM     51  CD  ARG A   5      -7.604   2.067  -9.542  0.00  0.00    +0.174 C 
BRANCH  51  52
ATOM     52  NE  ARG A   5      -8.510   1.490  -8.554  0.00  0.00    -0.265 N 
ATOM     53  CZ  ARG A   5      -8.114   0.814  -7.481  0.00  0.00    +0.342 C 
ATOM     54  NH2 ARG A   5      -9.007   0.325  -6.634  0.00  0.00    -0.292 N 
ATOM     55 HH21 ARG A   5      -8.693  -0.204  -5.795  0.00  0.00    +0.255 HD
ATOM     56 HH22 ARG A   5     -10.022   0.470  -6.808  0.00  0.00    +0.255 HD
ATOM     57  NH1 ARG A   5      -6.821   0.636  -7.251  0.00  0.00    -0.292 N 
ATOM     58 HH11 ARG A   5      -6.510   0.107  -6.411  0.00  0.00    +0.255 HD
ATOM     59 HH12 ARG A   5      -6.117   1.025  -7.910  0.00  0.00    +0.255 HD
ATOM     60  HE  ARG A   5      -9.532   1.616  -8.699  0.00  0.00    +0.259 HD
ENDBRANCH  51  52
ENDBRANCH  50  51
ENDBRANCH  49  50
ENDBRANCH  37  49
ENDBRANCH  34  37
ENDBRANCH   1  33
BRANCH   1  61
ATOM     61  CB  SER A   4     -13.202  -1.039 -14.061  0.00  0.00    +0.166 C 
BRANCH  61  62
ATOM     62  OG  SER A   4     -13.248   0.081 -13.186  0.00  0.00    -0.380 OA
ATOM     63  H   SER A   4     -13.990   0.679 -13.455  0.00  0.00    +0.211 HD
ENDBRANCH  61  62
ENDBRANCH   1  61
TORSDOF 26
REMARK  Name = ../refined-set-2016/3ijh/3ijh_pocket.pdb
REMARK  164 active torsions:
REMARK  status: ('A' for Active; 'I' for Inactive)
REMARK    1  A    between atoms: _1  and  _3
REMARK    2  A    between atoms: _3  and  _4
REMARK    3  A    between atoms: _3  and  _6
REMARK    4  A    between atoms: _6  and  _7
REMARK    5  A    between atoms: _10  and  _12
REMARK    6  A    between atoms: _12  and  _13
REMARK    7  A    between atoms: _12  and  _15
REMARK    8  A    between atoms: _15  and  _16
REMARK    9  A    between atoms: _19  and  _21
REMARK   10  A    between atoms: _21  and  _22
REMARK   11  A    between atoms: _21  and  _24
REMARK   12  A    between atoms: _24  and  _25
REMARK   13  A    between atoms: _30  and  _32
REMARK   14  A    between atoms: _32  and  _33
REMARK   15  A    between atoms: _32  and  _35
REMARK   16  A    between atoms: _35  and  _36
REMARK   17  A    between atoms: _38  and  _40
REMARK   18  A    between atoms: _40  and  _41
REMARK   19  A    between atoms: _40  and  _43
REMARK   20  A    between atoms: _43  and  _44
REMARK   21  A    between atoms: _44  and  _45
REMARK   22  A    between atoms: _45  and  _46
REMARK   23  A    between atoms: _55  and  _57
REMARK   24  A    between atoms: _57  and  _58
REMARK   25  A    between atoms: _57  and  _60
REMARK   26  A    between atoms: _60  and  _61
REMARK   27  A    between atoms: _64  and  _66
REMARK   28  A    between atoms: _66  and  _67
REMARK   29  A    between atoms: _66  and  _69
REMARK   30  A    between atoms: _69  and  _70
REMARK   31  A    between atoms: _70  and  _71
REMARK   32  A    between atoms: _71  and  _72
REMARK   33  A    between atoms: _72  and  _73
REMARK   34  A    between atoms: _77  and  _79
REMARK   35  A    between atoms: _79  and  _80
REMARK   36  A    between atoms: _79  and  _82
REMARK   37  A    between atoms: _82  and  _83
REMARK   38  A    between atoms: _88  and  _89
REMARK   39  A    between atoms: _91  and  _93
REMARK   40  A    between atoms: _93  and  _94
REMARK   41  A    between atoms: _93  and  _96
REMARK   42  A    between atoms: _96  and  _97
REMARK   43  A    between atoms: _107  and  _109
REMARK   44  A    between atoms: _109  and  _110
REMARK   45  A    between atoms: _109  and  _112
REMARK   46  A    between atoms: _112  and  _113
REMARK   47  A    between atoms: _113  and  _114
REMARK   48  A    between atoms: _114  and  _115
REMARK   49  A    between atoms: _115  and  _116
REMARK   50  A    between atoms: _120  and  _122
REMARK   51  A    between atoms: _122  and  _123
REMARK   52  A    between atoms: _122  and  _125
REMARK   53  A    between atoms: _125  and  _126
REMARK   54  A    between atoms: _126  and  _127
REMARK   55  A    between atoms: _132  and  _134
REMARK   56  A    between atoms: _134  and  _135
REMARK   57  A    between atoms: _134  and  _137
REMARK   58  A    between atoms: _137  and  _138
REMARK   59  A    between atoms: _140  and  _142
REMARK   60  A    between atoms: _142  and  _143
REMARK   61  A    between atoms: _142  and  _145
REMARK   62  A    between atoms: _145  and  _146
REMARK   63  A    between atoms: _151  and  _153
REMARK   64  A    between atoms: _153  and  _154
REMARK   65  A    between atoms: _153  and  _156
REMARK   66  A    between atoms: _156  and  _157
REMARK   67  A    between atoms: _162  and  _164
REMARK   68  A    between atoms: _164  and  _165
REMARK   69  A    between atoms: _164  and  _167
REMARK   70  A    between atoms: _167  and  _168
REMARK   71  A    between atoms: _171  and  _173
REMARK   72  A    between atoms: _173  and  _174
REMARK   73  A    between atoms: _173  and  _176
REMARK   74  A    between atoms: _176  and  _177
REMARK   75  A    between atoms: _177  and  _178
REMARK   76  A    between atoms: _178  and  _179
REMARK   77  A    between atoms: _188  and  _190
REMARK   78  A    between atoms: _190  and  _191
REMARK   79  A    between atoms: _190  and  _193
REMARK   80  A    between atoms: _193  and  _194
REMARK   81  A    between atoms: _199  and  _200
REMARK   82  A    between atoms: _202  and  _204
REMARK   83  A    between atoms: _204  and  _205
REMARK   84  A    between atoms: _204  and  _207
REMARK   85  A    between atoms: _207  and  _208
REMARK   86  A    between atoms: _210  and  _212
REMARK   87  A    between atoms: _212  and  _213
REMARK   88  A    between atoms: _212  and  _215
REMARK   89  A    between atoms: _215  and  _216
REMARK   90  A    between atoms: _226  and  _228
REMARK   91  A    between atoms: _228  and  _229
REMARK   92  A    between atoms: _228  and  _231
REMARK   93  A    between atoms: _231  and  _232
REMARK   94  A    between atoms: _238  and  _240
REMARK   95  A    between atoms: _240  and  _241
REMARK   96  A    between atoms: _240  and  _243
REMARK   97  A    between atoms: _243  and  _244
REMARK   98  A    between atoms: _244  and  _245
REMARK   99  A    between atoms: _245  and  _246
REMARK  100  A    between atoms: _255  and  _257
REMARK  101  A    between atoms: _257  and  _258
REMARK  102  A    between atoms: _257  and  _260
REMARK  103  A    between atoms: _260  and  _261
REMARK  104  A    between atoms: _266  and  _268
REMARK  105  A    between atoms: _268  and  _269
REMARK  106  A    between atoms: _272  and  _274
REMARK  107  A    between atoms: _274  and  _275
REMARK  108  A    between atoms: _274  and  _277
REMARK  109  A    between atoms: _277  and  _278
REMARK  110  A    between atoms: _278  and  _279
REMARK  111  A    between atoms: _279  and  _280
REMARK  112  A    between atoms: _280  and  _281
REMARK  113  A    between atoms: _285  and  _287
REMARK  114  A    between atoms: _287  and  _288
REMARK  115  A    between atoms: _287  and  _290
REMARK  116  A    between atoms: _290  and  _291
REMARK  117  A    between atoms: _294  and  _296
REMARK  118  A    between atoms: _296  and  _297
REMARK  119  A    between atoms: _296  and  _299
REMARK  120  A    between atoms: _299  and  _300
REMARK  121  A    between atoms: _300  and  _301
REMARK  122  A    between atoms: _304  and  _306
REMARK  123  A    between atoms: _306  and  _307
REMARK  124  A    between atoms: _306  and  _309
REMARK  125  A    between atoms: _309  and  _310
REMARK  126  A    between atoms: _313  and  _315
REMARK  127  A    between atoms: _315  and  _316
REMARK  128  A    between atoms: _315  and  _318
REMARK  129  A    between atoms: _318  and  _319
REMARK  130  A    between atoms: _322  and  _324
REMARK  131  A    between atoms: _324  and  _325
REMARK  132  A    between atoms: _324  and  _327
REMARK  133  A    between atoms: _327  and  _328
REMARK  134  A    between atoms: _331  and  _332
REMARK  135  A    between atoms: _337  and  _339
REMARK  136  A    between atoms: _339  and  _340
REMARK  137  A    between atoms: _339  and  _342
REMARK  138  A    between atoms: _342  and  _343
REMARK  139  A    between atoms: _345  and  _347
REMARK  140  A    between atoms: _347  and  _348
REMARK  141  A    between atoms: _347  and  _350
REMARK  142  A    between atoms: _350  and  _351
REMARK  143  A    between atoms: _356  and  _357
REMARK  144  A    between atoms: _359  and  _361
REMARK  145  A    between atoms: _361  and  _362
REMARK  146  A    between atoms: _361  and  _364
REMARK  147  A    between atoms: _364  and  _365
REMARK  148  A    between atoms: _370  and  _371
REMARK  149  A    between atoms: _373  and  _375
REMARK  150  A    between atoms: _375  and  _376
REMARK  151  A    between atoms: _375  and  _378
REMARK  152  A    between atoms: _378  and  _379
REMARK  153  A    between atoms: _384  and  _385
REMARK  154  A    between atoms: _387  and  _389
REMARK  155  A    between atoms: _389  and  _390
REMARK  156  A    between atoms: _389  and  _392
REMARK  157  A    between atoms: _392  and  _393
REMARK  158  A    between atoms: _393  and  _394
REMARK  159  A    between atoms: _397  and  _399
REMARK  160  A    between atoms: _399  and  _400
REMARK  161  A    between atoms: _402  and  _404
REMARK  162  A    between atoms: _404  and  _405
REMARK  163  A    between atoms: _404  and  _407
REMARK  164  A    between atoms: _407  and  _408
REMARK                            x       y       z     vdW  Elec       q    Type
REMARK                         _______ _______ _______ _____ _____    ______ ____
ROOT
ATOM      1  CG  LYS A   1      -5.756  -8.240 -11.912  0.00  0.00    -0.000 C 
ENDROOT
BRANCH   1   2
ATOM      2  CB  LYS A   1      -7.052  -8.192 -11.104  0.00  0.00    +0.025 C 
BRANCH   2   3
ATOM      3  CA  LYS A   1      -8.323  -8.158 -11.961  0.00  0.00    +0.133 C 
BRANCH   3   4
ATOM      4  N   LYS A   1      -8.486  -6.855 -12.591  0.00  0.00    -0.239 NA
ATOM      5  H   LYS A   1      -8.807  -6.050 -12.017  0.00  0.00    +0.142 HD
ENDBRANCH   3   4
BRANCH   3   6
ATOM      6  C   LYS A   1      -9.549  -8.494 -11.120  0.00  0.00    +0.224 C 
ATOM      7  O   LYS A   1     -10.228  -7.599 -10.608  0.00  0.00    -0.287 OA
ENDBRANCH   3   6
ENDBRANCH   2   3
ENDBRANCH   1   2
BRANCH   1   8
ATOM      8  CD  LYS A   1      -4.554  -7.875 -11.052  0.00  0.00    -0.024 C 
BRANCH   8   9
ATOM      9  CE  LYS A   1      -3.306  -7.615 -11.899  0.00  0.00    -0.086 C 
BRANCH   9  10
ATOM     10  NZ  LYS A   1      -2.717  -8.864 -12.472  0.00  0.00    +0.380 N 
ATOM     11  HZ1 LYS A   1      -2.446  -9.505 -11.699  0.00  0.00    -0.089 HD
ATOM     12  HZ2 LYS A   1      -1.876  -8.623 -13.034  0.00  0.00    -0.089 HD
ATOM     13  HZ3 LYS A   1      -3.420  -9.330 -13.080  0.00  0.00    -0.089 HD
ENDBRANCH   9  10
ENDBRANCH   8   9
ENDBRANCH   1   8
TORSDOF 7
REMARK  Name = ../refined-set-2016/3ijh/3ijh_pocket.pdb
REMARK  164 active torsions:
REMARK  status: ('A' for Active; 'I' for Inactive)
REMARK    1  A    between atoms: _1  and  _3
REMARK    2  A    between atoms: _3  and  _4
REMARK    3  A    between atoms: _3  and  _6
REMARK    4  A    between atoms: _6  and  _7
REMARK    5  A    between atoms: _10  and  _12
REMARK    6  A    between atoms: _12  and  _13
REMARK    7  A    between atoms: _12  and  _15
REMARK    8  A    between atoms: _15  and  _16
REMARK    9  A    between atoms: _19  and  _21
REMARK   10  A    between atoms: _21  and  _22
REMARK   11  A    between atoms: _21  and  _24
REMARK   12  A    between atoms: _24  and  _25
REMARK   13  A    between atoms: _30  and  _32
REMARK   14  A    between atoms: _32  and  _33
REMARK   15  A    between atoms: _32  and  _35
REMARK   16  A    between atoms: _35  and  _36
REMARK   17  A    between atoms: _38  and  _40
REMARK   18  A    between atoms: _40  and  _41
REMARK   19  A    between atoms: _40  and  _43
REMARK   20  A    between atoms: _43  and  _44
REMARK   21  A    between atoms: _44  and  _45
REMARK   22  A    between atoms: _45  and  _46
REMARK   23  A    between atoms: _55  and  _57
REMARK   24  A    between atoms: _57  and  _58
REMARK   25  A    between atoms: _57  and  _60
REMARK   26  A    between atoms: _60  and  _61
REMARK   27  A    between atoms: _64  and  _66
REMARK   28  A    between atoms: _66  and  _67
REMARK   29  A    between atoms: _66  and  _69
REMARK   30  A    between atoms: _69  and  _70
REMARK   31  A    between atoms: _70  and  _71
REMARK   32  A    between atoms: _71  and  _72
REMARK   33  A    between atoms: _72  and  _73
REMARK   34  A    between atoms: _77  and  _79
REMARK   35  A    between atoms: _79  and  _80
REMARK   36  A    between atoms: _79  and  _82
REMARK   37  A    between atoms: _82  and  _83
REMARK   38  A    between atoms: _88  and  _89
REMARK   39  A    between atoms: _91  and  _93
REMARK   40  A    between atoms: _93  and  _94
REMARK   41  A    between atoms: _93  and  _96
REMARK   42  A    between atoms: _96  and  _97
REMARK   43  A    between atoms: _107  and  _109
REMARK   44  A    between atoms: _109  and  _110
REMARK   45  A    between atoms: _109  and  _112
REMARK   46  A    between atoms: _112  and  _113
REMARK   47  A    between atoms: _113  and  _114
REMARK   48  A    between atoms: _114  and  _115
REMARK   49  A    between atoms: _115  and  _116
REMARK   50  A    between atoms: _120  and  _122
REMARK   51  A    between atoms: _122  and  _123
REMARK   52  A    between atoms: _122  and  _125
REMARK   53  A    between atoms: _125  and  _126
REMARK   54  A    between atoms: _126  and  _127
REMARK   55  A    between atoms: _132  and  _134
REMARK   56  A    between atoms: _134  and  _135
REMARK   57  A    between atoms: _134  and  _137
REMARK   58  A    between atoms: _137  and  _138
REMARK   59  A    between atoms: _140  and  _142
REMARK   60  A    between atoms: _142  and  _143
REMARK   61  A    between atoms: _142  and  _145
REMARK   62  A    between atoms: _145  and  _146
REMARK   63  A    between atoms: _151  and  _153
REMARK   64  A    between atoms: _153  and  _154
REMARK   65  A    between atoms: _153  and  _156
REMARK   66  A    between atoms: _156  and  _157
REMARK   67  A    between atoms: _162  and  _164
REMARK   68  A    between atoms: _164  and  _165
REMARK   69  A    between atoms: _164  and  _167
REMARK   70  A    between atoms: _167  and  _168
REMARK   71  A    between atoms: _171  and  _173
REMARK   72  A    between atoms: _173  and  _174
REMARK   73  A    between atoms: _173  and  _176
REMARK   74  A    between atoms: _176  and  _177
REMARK   75  A    between atoms: _177  and  _178
REMARK   76  A    between atoms: _178  and  _179
REMARK   77  A    between atoms: _188  and  _190
REMARK   78  A    between atoms: _190  and  _191
REMARK   79  A    between atoms: _190  and  _193
REMARK   80  A    between atoms: _193  and  _194
REMARK   81  A    between atoms: _199  and  _200
REMARK   82  A    between atoms: _202  and  _204
REMARK   83  A    between atoms: _204  and  _205
REMARK   84  A    between atoms: _204  and  _207
REMARK   85  A    between atoms: _207  and  _208
REMARK   86  A    between atoms: _210  and  _212
REMARK   87  A    between atoms: _212  and  _213
REMARK   88  A    between atoms: _212  and  _215
REMARK   89  A    between atoms: _215  and  _216
REMARK   90  A    between atoms: _226  and  _228
REMARK   91  A    between atoms: _228  and  _229
REMARK   92  A    between atoms: _228  and  _231
REMARK   93  A    between atoms: _231  and  _232
REMARK   94  A    between atoms: _238  and  _240
REMARK   95  A    between atoms: _240  and  _241
REMARK   96  A    between atoms: _240  and  _243
REMARK   97  A    between atoms: _243  and  _244
REMARK   98  A    between atoms: _244  and  _245
REMARK   99  A    between atoms: _245  and  _246
REMARK  100  A    between atoms: _255  and  _257
REMARK  101  A    between atoms: _257  and  _258
REMARK  102  A    between atoms: _257  and  _260
REMARK  103  A    between atoms: _260  and  _261
REMARK  104  A    between atoms: _266  and  _268
REMARK  105  A    between atoms: _268  and  _269
REMARK  106  A    between atoms: _272  and  _274
REMARK  107  A    between atoms: _274  and  _275
REMARK  108  A    between atoms: _274  and  _277
REMARK  109  A    between atoms: _277  and  _278
REMARK  110  A    between atoms: _278  and  _279
REMARK  111  A    between atoms: _279  and  _280
REMARK  112  A    between atoms: _280  and  _281
REMARK  113  A    between atoms: _285  and  _287
REMARK  114  A    between atoms: _287  and  _288
REMARK  115  A    between atoms: _287  and  _290
REMARK  116  A    between atoms: _290  and  _291
REMARK  117  A    between atoms: _294  and  _296
REMARK  118  A    between atoms: _296  and  _297
REMARK  119  A    between atoms: _296  and  _299
REMARK  120  A    between atoms: _299  and  _300
REMARK  121  A    between atoms: _300  and  _301
REMARK  122  A    between atoms: _304  and  _306
REMARK  123  A    between atoms: _306  and  _307
REMARK  124  A    between atoms: _306  and  _309
REMARK  125  A    between atoms: _309  and  _310
REMARK  126  A    between atoms: _313  and  _315
REMARK  127  A    between atoms: _315  and  _316
REMARK  128  A    between atoms: _315  and  _318
REMARK  129  A    between atoms: _318  and  _319
REMARK  130  A    between atoms: _322  and  _324
REMARK  131  A    between atoms: _324  and  _325
REMARK  132  A    between atoms: _324  and  _327
REMARK  133  A    between atoms: _327  and  _328
REMARK  134  A    between atoms: _331  and  _332
REMARK  135  A    between atoms: _337  and  _339
REMARK  136  A    between atoms: _339  and  _340
REMARK  137  A    between atoms: _339  and  _342
REMARK  138  A    between atoms: _342  and  _343
REMARK  139  A    between atoms: _345  and  _347
REMARK  140  A    between atoms: _347  and  _348
REMARK  141  A    between atoms: _347  and  _350
REMARK  142  A    between atoms: _350  and  _351
REMARK  143  A    between atoms: _356  and  _357
REMARK  144  A    between atoms: _359  and  _361
REMARK  145  A    between atoms: _361  and  _362
REMARK  146  A    between atoms: _361  and  _364
REMARK  147  A    between atoms: _364  and  _365
REMARK  148  A    between atoms: _370  and  _371
REMARK  149  A    between atoms: _373  and  _375
REMARK  150  A    between atoms: _375  and  _376
REMARK  151  A    between atoms: _375  and  _378
REMARK  152  A    between atoms: _378  and  _379
REMARK  153  A    between atoms: _384  and  _385
REMARK  154  A    between atoms: _387  and  _389
REMARK  155  A    between atoms: _389  and  _390
REMARK  156  A    between atoms: _389  and  _392
REMARK  157  A    between atoms: _392  and  _393
REMARK  158  A    between atoms: _393  and  _394
REMARK  159  A    between atoms: _397  and  _399
REMARK  160  A    between atoms: _399  and  _400
REMARK  161  A    between atoms: _402  and  _404
REMARK  162  A    between atoms: _404  and  _405
REMARK  163  A    between atoms: _404  and  _407
REMARK  164  A    between atoms: _407  and  _408
REMARK                            x       y       z     vdW  Elec       q    Type
REMARK                         _______ _______ _______ _____ _____    ______ ____
ROOT
ATOM      1  CG  TYR A   1      -9.918  -7.206  -6.175  0.00  0.00    -0.020 A 
ATOM      2  CD2 TYR A   1      -9.722  -6.073  -5.390  0.00  0.00    -0.001 A 
ATOM      3  CE2 TYR A   1      -8.889  -5.051  -5.808  0.00  0.00    +0.036 A 
ATOM      4  CZ  TYR A   1      -8.228  -5.156  -7.016  0.00  0.00    +0.134 A 
ATOM      5  CE1 TYR A   1      -8.398  -6.274  -7.807  0.00  0.00    +0.036 A 
ATOM      6  CD1 TYR A   1      -9.238  -7.289  -7.385  0.00  0.00    -0.001 A 
ENDROOT
BRANCH   4   7
ATOM      7  OH  TYR A   1      -7.390  -4.144  -7.441  0.00  0.00    -0.506 OA
ATOM      8  HH  TYR A   1      -7.379  -3.421  -6.765  0.00  0.00    +0.292 HD
ENDBRANCH   4   7
BRANCH   1   9
ATOM      9  CB  TYR A   1     -10.831  -8.327  -5.718  0.00  0.00    +0.051 C 
BRANCH   9  10
ATOM     10  CA  TYR A   1     -10.519  -9.671  -6.378  0.00  0.00    +0.137 C 
BRANCH  10  11
ATOM     11  N   TYR A   1     -10.954  -9.668  -7.773  0.00  0.00    -0.239 NA
ATOM     12  H   TYR A   1     -11.755  -9.065  -8.050  0.00  0.00    +0.142 HD
ENDBRANCH  10  11
BRANCH  10  13
ATOM     13  C   TYR A   1     -11.162 -10.818  -5.604  0.00  0.00    +0.224 C 
ATOM     14  O   TYR A   1     -12.016 -10.609  -4.741  0.00  0.00    -0.287 OA
ENDBRANCH  10  13
ENDBRANCH   9  10
ENDBRANCH   1   9
TORSDOF 5
REMARK  Name = ../refined-set-2016/3ijh/3ijh_pocket.pdb
REMARK  164 active torsions:
REMARK  status: ('A' for Active; 'I' for Inactive)
REMARK    1  A    between atoms: _1  and  _3
REMARK    2  A    between atoms: _3  and  _4
REMARK    3  A    between atoms: _3  and  _6
REMARK    4  A    between atoms: _6  and  _7
REMARK    5  A    between atoms: _10  and  _12
REMARK    6  A    between atoms: _12  and  _13
REMARK    7  A    between atoms: _12  and  _15
REMARK    8  A    between atoms: _15  and  _16
REMARK    9  A    between atoms: _19  and  _21
REMARK   10  A    between atoms: _21  and  _22
REMARK   11  A    between atoms: _21  and  _24
REMARK   12  A    between atoms: _24  and  _25
REMARK   13  A    between atoms: _30  and  _32
REMARK   14  A    between atoms: _32  and  _33
REMARK   15  A    between atoms: _32  and  _35
REMARK   16  A    between atoms: _35  and  _36
REMARK   17  A    between atoms: _38  and  _40
REMARK   18  A    between atoms: _40  and  _41
REMARK   19  A    between atoms: _40  and  _43
REMARK   20  A    between atoms: _43  and  _44
REMARK   21  A    between atoms: _44  and  _45
REMARK   22  A    between atoms: _45  and  _46
REMARK   23  A    between atoms: _55  and  _57
REMARK   24  A    between atoms: _57  and  _58
REMARK   25  A    between atoms: _57  and  _60
REMARK   26  A    between atoms: _60  and  _61
REMARK   27  A    between atoms: _64  and  _66
REMARK   28  A    between atoms: _66  and  _67
REMARK   29  A    between atoms: _66  and  _69
REMARK   30  A    between atoms: _69  and  _70
REMARK   31  A    between atoms: _70  and  _71
REMARK   32  A    between atoms: _71  and  _72
REMARK   33  A    between atoms: _72  and  _73
REMARK   34  A    between atoms: _77  and  _79
REMARK   35  A    between atoms: _79  and  _80
REMARK   36  A    between atoms: _79  and  _82
REMARK   37  A    between atoms: _82  and  _83
REMARK   38  A    between atoms: _88  and  _89
REMARK   39  A    between atoms: _91  and  _93
REMARK   40  A    between atoms: _93  and  _94
REMARK   41  A    between atoms: _93  and  _96
REMARK   42  A    between atoms: _96  and  _97
REMARK   43  A    between atoms: _107  and  _109
REMARK   44  A    between atoms: _109  and  _110
REMARK   45  A    between atoms: _109  and  _112
REMARK   46  A    between atoms: _112  and  _113
REMARK   47  A    between atoms: _113  and  _114
REMARK   48  A    between atoms: _114  and  _115
REMARK   49  A    between atoms: _115  and  _116
REMARK   50  A    between atoms: _120  and  _122
REMARK   51  A    between atoms: _122  and  _123
REMARK   52  A    between atoms: _122  and  _125
REMARK   53  A    between atoms: _125  and  _126
REMARK   54  A    between atoms: _126  and  _127
REMARK   55  A    between atoms: _132  and  _134
REMARK   56  A    between atoms: _134  and  _135
REMARK   57  A    between atoms: _134  and  _137
REMARK   58  A    between atoms: _137  and  _138
REMARK   59  A    between atoms: _140  and  _142
REMARK   60  A    between atoms: _142  and  _143
REMARK   61  A    between atoms: _142  and  _145
REMARK   62  A    between atoms: _145  and  _146
REMARK   63  A    between atoms: _151  and  _153
REMARK   64  A    between atoms: _153  and  _154
REMARK   65  A    between atoms: _153  and  _156
REMARK   66  A    between atoms: _156  and  _157
REMARK   67  A    between atoms: _162  and  _164
REMARK   68  A    between atoms: _164  and  _165
REMARK   69  A    between atoms: _164  and  _167
REMARK   70  A    between atoms: _167  and  _168
REMARK   71  A    between atoms: _171  and  _173
REMARK   72  A    between atoms: _173  and  _174
REMARK   73  A    between atoms: _173  and  _176
REMARK   74  A    between atoms: _176  and  _177
REMARK   75  A    between atoms: _177  and  _178
REMARK   76  A    between atoms: _178  and  _179
REMARK   77  A    between atoms: _188  and  _190
REMARK   78  A    between atoms: _190  and  _191
REMARK   79  A    between atoms: _190  and  _193
REMARK   80  A    between atoms: _193  and  _194
REMARK   81  A    between atoms: _199  and  _200
REMARK   82  A    between atoms: _202  and  _204
REMARK   83  A    between atoms: _204  and  _205
REMARK   84  A    between atoms: _204  and  _207
REMARK   85  A    between atoms: _207  and  _208
REMARK   86  A    between atoms: _210  and  _212
REMARK   87  A    between atoms: _212  and  _213
REMARK   88  A    between atoms: _212  and  _215
REMARK   89  A    between atoms: _215  and  _216
REMARK   90  A    between atoms: _226  and  _228
REMARK   91  A    between atoms: _228  and  _229
REMARK   92  A    between atoms: _228  and  _231
REMARK   93  A    between atoms: _231  and  _232
REMARK   94  A    between atoms: _238  and  _240
REMARK   95  A    between atoms: _240  and  _241
REMARK   96  A    between atoms: _240  and  _243
REMARK   97  A    between atoms: _243  and  _244
REMARK   98  A    between atoms: _244  and  _245
REMARK   99  A    between atoms: _245  and  _246
REMARK  100  A    between atoms: _255  and  _257
REMARK  101  A    between atoms: _257  and  _258
REMARK  102  A    between atoms: _257  and  _260
REMARK  103  A    between atoms: _260  and  _261
REMARK  104  A    between atoms: _266  and  _268
REMARK  105  A    between atoms: _268  and  _269
REMARK  106  A    between atoms: _272  and  _274
REMARK  107  A    between atoms: _274  and  _275
REMARK  108  A    between atoms: _274  and  _277
REMARK  109  A    between atoms: _277  and  _278
REMARK  110  A    between atoms: _278  and  _279
REMARK  111  A    between atoms: _279  and  _280
REMARK  112  A    between atoms: _280  and  _281
REMARK  113  A    between atoms: _285  and  _287
REMARK  114  A    between atoms: _287  and  _288
REMARK  115  A    between atoms: _287  and  _290
REMARK  116  A    between atoms: _290  and  _291
REMARK  117  A    between atoms: _294  and  _296
REMARK  118  A    between atoms: _296  and  _297
REMARK  119  A    between atoms: _296  and  _299
REMARK  120  A    between atoms: _299  and  _300
REMARK  121  A    between atoms: _300  and  _301
REMARK  122  A    between atoms: _304  and  _306
REMARK  123  A    between atoms: _306  and  _307
REMARK  124  A    between atoms: _306  and  _309
REMARK  125  A    between atoms: _309  and  _310
REMARK  126  A    between atoms: _313  and  _315
REMARK  127  A    between atoms: _315  and  _316
REMARK  128  A    between atoms: _315  and  _318
REMARK  129  A    between atoms: _318  and  _319
REMARK  130  A    between atoms: _322  and  _324
REMARK  131  A    between atoms: _324  and  _325
REMARK  132  A    between atoms: _324  and  _327
REMARK  133  A    between atoms: _327  and  _328
REMARK  134  A    between atoms: _331  and  _332
REMARK  135  A    between atoms: _337  and  _339
REMARK  136  A    between atoms: _339  and  _340
REMARK  137  A    between atoms: _339  and  _342
REMARK  138  A    between atoms: _342  and  _343
REMARK  139  A    between atoms: _345  and  _347
REMARK  140  A    between atoms: _347  and  _348
REMARK  141  A    between atoms: _347  and  _350
REMARK  142  A    between atoms: _350  and  _351
REMARK  143  A    between atoms: _356  and  _357
REMARK  144  A    between atoms: _359  and  _361
REMARK  145  A    between atoms: _361  and  _362
REMARK  146  A    between atoms: _361  and  _364
REMARK  147  A    between atoms: _364  and  _365
REMARK  148  A    between atoms: _370  and  _371
REMARK  149  A    between atoms: _373  and  _375
REMARK  150  A    between atoms: _375  and  _376
REMARK  151  A    between atoms: _375  and  _378
REMARK  152  A    between atoms: _378  and  _379
REMARK  153  A    between atoms: _384  and  _385
REMARK  154  A    between atoms: _387  and  _389
REMARK  155  A    between atoms: _389  and  _390
REMARK  156  A    between atoms: _389  and  _392
REMARK  157  A    between atoms: _392  and  _393
REMARK  158  A    between atoms: _393  and  _394
REMARK  159  A    between atoms: _397  and  _399
REMARK  160  A    between atoms: _399  and  _400
REMARK  161  A    between atoms: _402  and  _404
REMARK  162  A    between atoms: _404  and  _405
REMARK  163  A    between atoms: _404  and  _407
REMARK  164  A    between atoms: _407  and  _408
REMARK                            x       y       z     vdW  Elec       q    Type
REMARK                         _______ _______ _______ _____ _____    ______ ____
ROOT
ATOM      1  CG  TRP A   1      -5.092 -10.704  -8.373  0.00  0.00    -0.002 A 
ATOM      2  CD1 TRP A   1      -5.867  -9.763  -7.754  0.00  0.00    +0.068 A 
ATOM      3  NE1 TRP A   1      -5.099  -8.680  -7.386  0.00  0.00    -0.352 N 
ATOM      4  HE1 TRP A   1      -5.445  -7.832  -6.893  0.00  0.00    +0.166 HD
ATOM      5  CE2 TRP A   1      -3.805  -8.902  -7.776  0.00  0.00    +0.056 A 
ATOM      6  CZ2 TRP A   1      -2.674  -8.102  -7.630  0.00  0.00    +0.017 A 
ATOM      7  CH2 TRP A   1      -1.490  -8.586  -8.128  0.00  0.00    +0.001 A 
ATOM      8  CZ3 TRP A   1      -1.417  -9.835  -8.758  0.00  0.00    +0.000 A 
ATOM      9  CE3 TRP A   1      -2.541 -10.630  -8.904  0.00  0.00    +0.001 A 
ATOM     10  CD2 TRP A   1      -3.762 -10.165  -8.406  0.00  0.00    +0.013 A 
ENDROOT
BRANCH   1  11
ATOM     11  CB  TRP A   1      -5.545 -12.025  -8.944  0.00  0.00    +0.053 C 
BRANCH  11  12
ATOM     12  CA  TRP A   1      -6.749 -12.633  -8.222  0.00  0.00    +0.137 C 
BRANCH  12  13
ATOM     13  N   TRP A   1      -6.366 -13.181  -6.926  0.00  0.00    -0.239 NA
ATOM     14  H   TRP A   1      -6.665 -12.692  -6.058  0.00  0.00    +0.142 HD
ENDBRANCH  12  13
BRANCH  12  15
ATOM     15  C   TRP A   1      -7.413 -13.712  -9.078  0.00  0.00    +0.224 C 
ATOM     16  O   TRP A   1      -7.188 -13.792 -10.292  0.00  0.00    -0.287 OA
ENDBRANCH  12  15
ENDBRANCH  11  12
ENDBRANCH   1  11
TORSDOF 4
REMARK  Name = ../refined-set-2016/3ijh/3ijh_pocket.pdb
REMARK  164 active torsions:
REMARK  status: ('A' for Active; 'I' for Inactive)
REMARK    1  A    between atoms: _1  and  _3
REMARK    2  A    between atoms: _3  and  _4
REMARK    3  A    between atoms: _3  and  _6
REMARK    4  A    between atoms: _6  and  _7
REMARK    5  A    between atoms: _10  and  _12
REMARK    6  A    between atoms: _12  and  _13
REMARK    7  A    between atoms: _12  and  _15
REMARK    8  A    between atoms: _15  and  _16
REMARK    9  A    between atoms: _19  and  _21
REMARK   10  A    between atoms: _21  and  _22
REMARK   11  A    between atoms: _21  and  _24
REMARK   12  A    between atoms: _24  and  _25
REMARK   13  A    between atoms: _30  and  _32
REMARK   14  A    between atoms: _32  and  _33
REMARK   15  A    between atoms: _32  and  _35
REMARK   16  A    between atoms: _35  and  _36
REMARK   17  A    between atoms: _38  and  _40
REMARK   18  A    between atoms: _40  and  _41
REMARK   19  A    between atoms: _40  and  _43
REMARK   20  A    between atoms: _43  and  _44
REMARK   21  A    between atoms: _44  and  _45
REMARK   22  A    between atoms: _45  and  _46
REMARK   23  A    between atoms: _55  and  _57
REMARK   24  A    between atoms: _57  and  _58
REMARK   25  A    between atoms: _57  and  _60
REMARK   26  A    between atoms: _60  and  _61
REMARK   27  A    between atoms: _64  and  _66
REMARK   28  A    between atoms: _66  and  _67
REMARK   29  A    between atoms: _66  and  _69
REMARK   30  A    between atoms: _69  and  _70
REMARK   31  A    between atoms: _70  and  _71
REMARK   32  A    between atoms: _71  and  _72
REMARK   33  A    between atoms: _72  and  _73
REMARK   34  A    between atoms: _77  and  _79
REMARK   35  A    between atoms: _79  and  _80
REMARK   36  A    between atoms: _79  and  _82
REMARK   37  A    between atoms: _82  and  _83
REMARK   38  A    between atoms: _88  and  _89
REMARK   39  A    between atoms: _91  and  _93
REMARK   40  A    between atoms: _93  and  _94
REMARK   41  A    between atoms: _93  and  _96
REMARK   42  A    between atoms: _96  and  _97
REMARK   43  A    between atoms: _107  and  _109
REMARK   44  A    between atoms: _109  and  _110
REMARK   45  A    between atoms: _109  and  _112
REMARK   46  A    between atoms: _112  and  _113
REMARK   47  A    between atoms: _113  and  _114
REMARK   48  A    between atoms: _114  and  _115
REMARK   49  A    between atoms: _115  and  _116
REMARK   50  A    between atoms: _120  and  _122
REMARK   51  A    between atoms: _122  and  _123
REMARK   52  A    between atoms: _122  and  _125
REMARK   53  A    between atoms: _125  and  _126
REMARK   54  A    between atoms: _126  and  _127
REMARK   55  A    between atoms: _132  and  _134
REMARK   56  A    between atoms: _134  and  _135
REMARK   57  A    between atoms: _134  and  _137
REMARK   58  A    between atoms: _137  and  _138
REMARK   59  A    between atoms: _140  and  _142
REMARK   60  A    between atoms: _142  and  _143
REMARK   61  A    between atoms: _142  and  _145
REMARK   62  A    between atoms: _145  and  _146
REMARK   63  A    between atoms: _151  and  _153
REMARK   64  A    between atoms: _153  and  _154
REMARK   65  A    between atoms: _153  and  _156
REMARK   66  A    between atoms: _156  and  _157
REMARK   67  A    between atoms: _162  and  _164
REMARK   68  A    between atoms: _164  and  _165
REMARK   69  A    between atoms: _164  and  _167
REMARK   70  A    between atoms: _167  and  _168
REMARK   71  A    between atoms: _171  and  _173
REMARK   72  A    between atoms: _173  and  _174
REMARK   73  A    between atoms: _173  and  _176
REMARK   74  A    between atoms: _176  and  _177
REMARK   75  A    between atoms: _177  and  _178
REMARK   76  A    between atoms: _178  and  _179
REMARK   77  A    between atoms: _188  and  _190
REMARK   78  A    between atoms: _190  and  _191
REMARK   79  A    between atoms: _190  and  _193
REMARK   80  A    between atoms: _193  and  _194
REMARK   81  A    between atoms: _199  and  _200
REMARK   82  A    between atoms: _202  and  _204
REMARK   83  A    between atoms: _204  and  _205
REMARK   84  A    between atoms: _204  and  _207
REMARK   85  A    between atoms: _207  and  _208
REMARK   86  A    between atoms: _210  and  _212
REMARK   87  A    between atoms: _212  and  _213
REMARK   88  A    between atoms: _212  and  _215
REMARK   89  A    between atoms: _215  and  _216
REMARK   90  A    between atoms: _226  and  _228
REMARK   91  A    between atoms: _228  and  _229
REMARK   92  A    between atoms: _228  and  _231
REMARK   93  A    between atoms: _231  and  _232
REMARK   94  A    between atoms: _238  and  _240
REMARK   95  A    between atoms: _240  and  _241
REMARK   96  A    between atoms: _240  and  _243
REMARK   97  A    between atoms: _243  and  _244
REMARK   98  A    between atoms: _244  and  _245
REMARK   99  A    between atoms: _245  and  _246
REMARK  100  A    between atoms: _255  and  _257
REMARK  101  A    between atoms: _257  and  _258
REMARK  102  A    between atoms: _257  and  _260
REMARK  103  A    between atoms: _260  and  _261
REMARK  104  A    between atoms: _266  and  _268
REMARK  105  A    between atoms: _268  and  _269
REMARK  106  A    between atoms: _272  and  _274
REMARK  107  A    between atoms: _274  and  _275
REMARK  108  A    between atoms: _274  and  _277
REMARK  109  A    between atoms: _277  and  _278
REMARK  110  A    between atoms: _278  and  _279
REMARK  111  A    between atoms: _279  and  _280
REMARK  112  A    between atoms: _280  and  _281
REMARK  113  A    between atoms: _285  and  _287
REMARK  114  A    between atoms: _287  and  _288
REMARK  115  A    between atoms: _287  and  _290
REMARK  116  A    between atoms: _290  and  _291
REMARK  117  A    between atoms: _294  and  _296
REMARK  118  A    between atoms: _296  and  _297
REMARK  119  A    between atoms: _296  and  _299
REMARK  120  A    between atoms: _299  and  _300
REMARK  121  A    between atoms: _300  and  _301
REMARK  122  A    between atoms: _304  and  _306
REMARK  123  A    between atoms: _306  and  _307
REMARK  124  A    between atoms: _306  and  _309
REMARK  125  A    between atoms: _309  and  _310
REMARK  126  A    between atoms: _313  and  _315
REMARK  127  A    between atoms: _315  and  _316
REMARK  128  A    between atoms: _315  and  _318
REMARK  129  A    between atoms: _318  and  _319
REMARK  130  A    between atoms: _322  and  _324
REMARK  131  A    between atoms: _324  and  _325
REMARK  132  A    between atoms: _324  and  _327
REMARK  133  A    between atoms: _327  and  _328
REMARK  134  A    between atoms: _331  and  _332
REMARK  135  A    between atoms: _337  and  _339
REMARK  136  A    between atoms: _339  and  _340
REMARK  137  A    between atoms: _339  and  _342
REMARK  138  A    between atoms: _342  and  _343
REMARK  139  A    between atoms: _345  and  _347
REMARK  140  A    between atoms: _347  and  _348
REMARK  141  A    between atoms: _347  and  _350
REMARK  142  A    between atoms: _350  and  _351
REMARK  143  A    between atoms: _356  and  _357
REMARK  144  A    between atoms: _359  and  _361
REMARK  145  A    between atoms: _361  and  _362
REMARK  146  A    between atoms: _361  and  _364
REMARK  147  A    between atoms: _364  and  _365
REMARK  148  A    between atoms: _370  and  _371
REMARK  149  A    between atoms: _373  and  _375
REMARK  150  A    between atoms: _375  and  _376
REMARK  151  A    between atoms: _375  and  _378
REMARK  152  A    between atoms: _378  and  _379
REMARK  153  A    between atoms: _384  and  _385
REMARK  154  A    between atoms: _387  and  _389
REMARK  155  A    between atoms: _389  and  _390
REMARK  156  A    between atoms: _389  and  _392
REMARK  157  A    between atoms: _392  and  _393
REMARK  158  A    between atoms: _393  and  _394
REMARK  159  A    between atoms: _397  and  _399
REMARK  160  A    between atoms: _399  and  _400
REMARK  161  A    between atoms: _402  and  _404
REMARK  162  A    between atoms: _404  and  _405
REMARK  163  A    between atoms: _404  and  _407
REMARK  164  A    between atoms: _407  and  _408
REMARK                            x       y       z     vdW  Elec       q    Type
REMARK                         _______ _______ _______ _____ _____    ______ ____
ROOT
ATOM      1  CA  ASN A   4     -13.258  -5.839  -4.249  0.00  0.00    +0.158 C 
ENDROOT
BRANCH   1   2
ATOM      2  C   ASN A   4     -14.001  -4.711  -3.523  0.00  0.00    +0.241 C 
ATOM      3  N   ASN A   5     -14.751  -5.068  -2.483  0.00  0.00    -0.297 N 
ATOM      4  H   ASN A   5     -14.836  -6.079  -2.253  0.00  0.00    +0.150 HD
ATOM      5  O   ASN A   4     -13.893  -3.546  -3.903  0.00  0.00    -0.273 OA
BRANCH   3   6
ATOM      6  CA  ASN A   5     -15.462  -4.095  -1.649  0.00  0.00    +0.158 C 
BRANCH   6   7
ATOM      7  C   ASN A   5     -15.362  -4.546  -0.195  0.00  0.00    +0.241 C 
ATOM      8  N   LEU A   6     -14.414  -3.974   0.542  0.00  0.00    -0.297 N 
ATOM      9  H   LEU A   6     -13.952  -3.108   0.199  0.00  0.00    +0.150 HD
ATOM     10  O   ASN A   5     -16.129  -5.396   0.252  0.00  0.00    -0.273 OA
BRANCH   8  11
ATOM     11  CA  LEU A   6     -14.012  -4.544   1.825  0.00  0.00    +0.149 C 
BRANCH  11  12
ATOM     12  C   LEU A   6     -13.701  -6.021   1.582  0.00  0.00    +0.241 C 
ATOM     13  N   ARG A   7     -14.066  -6.890   2.521  0.00  0.00    -0.298 N 
ATOM     14  H   ARG A   7     -14.522  -6.546   3.390  0.00  0.00    +0.150 HD
ATOM     15  O   LEU A   6     -13.129  -6.363   0.545  0.00  0.00    -0.273 OA
BRANCH  13  16
ATOM     16  CA  ARG A   7     -13.833  -8.327   2.346  0.00  0.00    +0.137 C 
BRANCH  16  17
ATOM     17  C   ARG A   7     -15.022  -9.166   2.813  0.00  0.00    +0.227 C 
ATOM     18  O   ARG A   7     -15.694  -8.813   3.785  0.00  0.00    -0.286 OA
ENDBRANCH  16  17
BRANCH  16  19
ATOM     19  CB  ARG A   7     -12.563  -8.784   3.083  0.00  0.00    +0.031 C 
BRANCH  19  20
ATOM     20  CG  ARG A   7     -11.236  -8.248   2.522  0.00  0.00    +0.045 C 
BRANCH  20  21
ATOM     21  CD  ARG A   7     -10.896  -6.888   3.121  0.00  0.00    +0.174 C 
BRANCH  21  22
ATOM     22  NE  ARG A   7      -9.568  -6.406   2.752  0.00  0.00    -0.265 N 
ATOM     23  HE  ARG A   7      -8.781  -6.607   3.401  0.00  0.00    +0.259 HD
ATOM     24  CZ  ARG A   7      -9.298  -5.727   1.640  0.00  0.00    +0.342 C 
ATOM     25  NH2 ARG A   7      -8.056  -5.323   1.399  0.00  0.00    -0.292 N 
ATOM     26 HH21 ARG A   7      -7.298  -5.538   2.078  0.00  0.00    +0.255 HD
ATOM     27 HH22 ARG A   7      -7.841  -4.792   0.531  0.00  0.00    +0.255 HD
ATOM     28  NH1 ARG A   7     -10.262  -5.459   0.766  0.00  0.00    -0.292 N 
ATOM     29 HH11 ARG A   7     -11.234  -5.780   0.949  0.00  0.00    +0.255 HD
ATOM     30 HH12 ARG A   7     -10.045  -4.928  -0.101  0.00  0.00    +0.255 HD
ENDBRANCH  21  22
ENDBRANCH  20  21
ENDBRANCH  19  20
ENDBRANCH  16  19
ENDBRANCH  13  16
ENDBRANCH  11  12
BRANCH  11  31
ATOM     31  CB  LEU A   6     -15.104  -4.360   2.884  0.00  0.00    +0.029 C 
BRANCH  31  32
ATOM     32  CG  LEU A   6     -15.580  -2.903   2.991  0.00  0.00    +0.002 C 
ATOM     33  CD2 LEU A   6     -16.541  -2.696   4.148  0.00  0.00    +0.000 C 
ATOM     34  CD1 LEU A   6     -14.398  -1.955   3.114  0.00  0.00    +0.000 C 
ENDBRANCH  31  32
ENDBRANCH  11  31
ENDBRANCH   8  11
ENDBRANCH   6   7
BRANCH   6  35
ATOM     35  CB  ASN A   5     -16.930  -3.990  -2.083  0.00  0.00    +0.114 C 
BRANCH  35  36
ATOM     36  CG  ASN A   5     -17.723  -2.941  -1.290  0.00  0.00    +0.222 C 
ATOM     37  ND2 ASN A   5     -17.082  -2.313  -0.313  0.00  0.00    -0.329 N 
ATOM     38 HD21 ASN A   5     -17.575  -1.595   0.255  0.00  0.00    +0.145 HD
ATOM     39 HD22 ASN A   5     -16.086  -2.539  -0.115  0.00  0.00    +0.145 HD
ATOM     40  OD1 ASN A   5     -18.904  -2.709  -1.564  0.00  0.00    -0.275 OA
ENDBRANCH  35  36
ENDBRANCH   6  35
ENDBRANCH   3   6
ENDBRANCH   1   2
BRANCH   1  43
ATOM     41  C   SER A   3     -12.015  -6.970  -2.491  0.00  0.00    +0.243 C 
ATOM     42  O   SER A   3     -11.276  -6.005  -2.345  0.00  0.00    -0.273 OA
ATOM     43  N   ASN A   4     -12.996  -6.993  -3.390  0.00  0.00    -0.297 N 
ATOM     44  H   ASN A   4     -13.585  -7.845  -3.483  0.00  0.00    +0.150 HD
BRANCH  41  45
ATOM     45  CA  SER A   3     -11.856  -8.209  -1.605  0.00  0.00    +0.178 C 
BRANCH  45  48
ATOM     46  C   GLN A   2     -13.225 -10.218  -1.462  0.00  0.00    +0.241 C 
ATOM     47  O   GLN A   2     -13.358 -10.110  -0.241  0.00  0.00    -0.273 OA
ATOM     48  N   SER A   3     -12.483  -9.388  -2.192  0.00  0.00    -0.295 N 
ATOM     49  H   SER A   3     -12.347  -9.585  -3.204  0.00  0.00    +0.150 HD
BRANCH  46  50
ATOM     50  CA  GLN A   2     -13.910 -11.349  -2.211  0.00  0.00    +0.149 C 
BRANCH  50  52
ATOM     51  C   LYS A   1     -12.910 -13.355  -1.251  0.00  0.00    +0.238 C 
ATOM     52  N   GLN A   2     -13.952 -12.532  -1.355  0.00  0.00    -0.297 N 
ATOM     53  H   GLN A   2     -14.816 -12.736  -0.814  0.00  0.00    +0.150 HD
ATOM     54  O   LYS A   1     -11.883 -13.225  -1.917  0.00  0.00    -0.274 OA
BRANCH  51  55
ATOM     55  CA  LYS A   1     -13.029 -14.489  -0.245  0.00  0.00    +0.145 C 
BRANCH  55  56
ATOM     56  N   LYS A   1     -12.958 -15.785  -0.911  0.00  0.00    -0.238 NA
ATOM     57  H   LYS A   1     -12.409 -15.876  -1.790  0.00  0.00    +0.142 HD
ENDBRANCH  55  56
BRANCH  55  58
ATOM     58  CB  LYS A   1     -11.905 -14.356   0.791  0.00  0.00    +0.026 C 
BRANCH  58  59
ATOM     59  CG  LYS A   1     -12.044 -13.138   1.705  0.00  0.00    -0.000 C 
BRANCH  59  60
ATOM     60  CD  LYS A   1     -10.692 -12.577   2.129  0.00  0.00    -0.024 C 
BRANCH  60  61
ATOM     61  CE  LYS A   1      -9.944 -11.994   0.937  0.00  0.00    -0.086 C 
BRANCH  61  62
ATOM     62  NZ  LYS A   1      -8.527 -11.696   1.268  0.00  0.00    +0.380 N 
ATOM     63  HZ1 LYS A   1      -8.492 -11.007   2.046  0.00  0.00    -0.089 HD
ATOM     64  HZ2 LYS A   1      -8.048 -12.573   1.558  0.00  0.00    -0.089 HD
ATOM     65  HZ3 LYS A   1      -8.052 -11.301   0.431  0.00  0.00    -0.089 HD
ENDBRANCH  61  62
ENDBRANCH  60  61
ENDBRANCH  59  60
ENDBRANCH  58  59
ENDBRANCH  55  58
ENDBRANCH  51  55
ENDBRANCH  50  52
BRANCH  50  66
ATOM     66  CB  GLN A   2     -15.321 -10.919  -2.636  0.00  0.00    +0.039 C 
BRANCH  66  67
ATOM     67  CG  GLN A   2     -16.161 -10.277  -1.521  0.00  0.00    +0.087 C 
BRANCH  67  68
ATOM     68  CD  GLN A   2     -15.914  -8.780  -1.381  0.00  0.00    +0.219 C 
ATOM     69  NE2 GLN A   2     -16.271  -8.221  -0.228  0.00  0.00    -0.329 N 
ATOM     70 HE21 GLN A   2     -16.695  -8.803   0.523  0.00  0.00    +0.145 HD
ATOM     71 HE22 GLN A   2     -16.126  -7.202  -0.077  0.00  0.00    +0.145 HD
ATOM     72  OE1 GLN A   2     -15.408  -8.137  -2.302  0.00  0.00    -0.275 OA
ENDBRANCH  67  68
ENDBRANCH  66  67
ENDBRANCH  50  66
ENDBRANCH  46  50
ENDBRANCH  45  48
BRANCH  45  73
ATOM     73  CB  SER A   3     -10.375  -8.460  -1.283  0.00  0.00    +0.166 C 
BRANCH  73  74
ATOM     74  OG  SER A   3      -9.621  -8.691  -2.462  0.00  0.00    -0.380 OA
ATOM     75  H   SER A   3      -8.674  -8.849  -2.221  0.00  0.00    +0.211 HD
ENDBRANCH  73  74
ENDBRANCH  45  73
ENDBRANCH  41  45
ENDBRANCH   1  43
BRANCH   1  76
ATOM     76  CB  ASN A   4     -14.017  -6.254  -5.514  0.00  0.00    +0.114 C 
BRANCH  76  77
ATOM     77  CG  ASN A   4     -13.940  -5.204  -6.606  0.00  0.00    +0.222 C 
ATOM     78  OD1 ASN A   4     -12.932  -4.505  -6.741  0.00  0.00    -0.275 OA
ATOM     79  ND2 ASN A   4     -15.005  -5.088  -7.394  0.00  0.00    -0.329 N 
ATOM     80 HD21 ASN A   4     -15.833  -5.699  -7.243  0.00  0.00    +0.145 HD
ATOM     81 HD22 ASN A   4     -15.010  -4.386  -8.161  0.00  0.00    +0.145 HD
ENDBRANCH  76  77
ENDBRANCH   1  76
TORSDOF 34
REMARK  Name = ../refined-set-2016/3ijh/3ijh_pocket.pdb
REMARK  164 active torsions:
REMARK  status: ('A' for Active; 'I' for Inactive)
REMARK    1  A    between atoms: _1  and  _3
REMARK    2  A    between atoms: _3  and  _4
REMARK    3  A    between atoms: _3  and  _6
REMARK    4  A    between atoms: _6  and  _7
REMARK    5  A    between atoms: _10  and  _12
REMARK    6  A    between atoms: _12  and  _13
REMARK    7  A    between atoms: _12  and  _15
REMARK    8  A    between atoms: _15  and  _16
REMARK    9  A    between atoms: _19  and  _21
REMARK   10  A    between atoms: _21  and  _22
REMARK   11  A    between atoms: _21  and  _24
REMARK   12  A    between atoms: _24  and  _25
REMARK   13  A    between atoms: _30  and  _32
REMARK   14  A    between atoms: _32  and  _33
REMARK   15  A    between atoms: _32  and  _35
REMARK   16  A    between atoms: _35  and  _36
REMARK   17  A    between atoms: _38  and  _40
REMARK   18  A    between atoms: _40  and  _41
REMARK   19  A    between atoms: _40  and  _43
REMARK   20  A    between atoms: _43  and  _44
REMARK   21  A    between atoms: _44  and  _45
REMARK   22  A    between atoms: _45  and  _46
REMARK   23  A    between atoms: _55  and  _57
REMARK   24  A    between atoms: _57  and  _58
REMARK   25  A    between atoms: _57  and  _60
REMARK   26  A    between atoms: _60  and  _61
REMARK   27  A    between atoms: _64  and  _66
REMARK   28  A    between atoms: _66  and  _67
REMARK   29  A    between atoms: _66  and  _69
REMARK   30  A    between atoms: _69  and  _70
REMARK   31  A    between atoms: _70  and  _71
REMARK   32  A    between atoms: _71  and  _72
REMARK   33  A    between atoms: _72  and  _73
REMARK   34  A    between atoms: _77  and  _79
REMARK   35  A    between atoms: _79  and  _80
REMARK   36  A    between atoms: _79  and  _82
REMARK   37  A    between atoms: _82  and  _83
REMARK   38  A    between atoms: _88  and  _89
REMARK   39  A    between atoms: _91  and  _93
REMARK   40  A    between atoms: _93  and  _94
REMARK   41  A    between atoms: _93  and  _96
REMARK   42  A    between atoms: _96  and  _97
REMARK   43  A    between atoms: _107  and  _109
REMARK   44  A    between atoms: _109  and  _110
REMARK   45  A    between atoms: _109  and  _112
REMARK   46  A    between atoms: _112  and  _113
REMARK   47  A    between atoms: _113  and  _114
REMARK   48  A    between atoms: _114  and  _115
REMARK   49  A    between atoms: _115  and  _116
REMARK   50  A    between atoms: _120  and  _122
REMARK   51  A    between atoms: _122  and  _123
REMARK   52  A    between atoms: _122  and  _125
REMARK   53  A    between atoms: _125  and  _126
REMARK   54  A    between atoms: _126  and  _127
REMARK   55  A    between atoms: _132  and  _134
REMARK   56  A    between atoms: _134  and  _135
REMARK   57  A    between atoms: _134  and  _137
REMARK   58  A    between atoms: _137  and  _138
REMARK   59  A    between atoms: _140  and  _142
REMARK   60  A    between atoms: _142  and  _143
REMARK   61  A    between atoms: _142  and  _145
REMARK   62  A    between atoms: _145  and  _146
REMARK   63  A    between atoms: _151  and  _153
REMARK   64  A    between atoms: _153  and  _154
REMARK   65  A    between atoms: _153  and  _156
REMARK   66  A    between atoms: _156  and  _157
REMARK   67  A    between atoms: _162  and  _164
REMARK   68  A    between atoms: _164  and  _165
REMARK   69  A    between atoms: _164  and  _167
REMARK   70  A    between atoms: _167  and  _168
REMARK   71  A    between atoms: _171  and  _173
REMARK   72  A    between atoms: _173  and  _174
REMARK   73  A    between atoms: _173  and  _176
REMARK   74  A    between atoms: _176  and  _177
REMARK   75  A    between atoms: _177  and  _178
REMARK   76  A    between atoms: _178  and  _179
REMARK   77  A    between atoms: _188  and  _190
REMARK   78  A    between atoms: _190  and  _191
REMARK   79  A    between atoms: _190  and  _193
REMARK   80  A    between atoms: _193  and  _194
REMARK   81  A    between atoms: _199  and  _200
REMARK   82  A    between atoms: _202  and  _204
REMARK   83  A    between atoms: _204  and  _205
REMARK   84  A    between atoms: _204  and  _207
REMARK   85  A    between atoms: _207  and  _208
REMARK   86  A    between atoms: _210  and  _212
REMARK   87  A    between atoms: _212  and  _213
REMARK   88  A    between atoms: _212  and  _215
REMARK   89  A    between atoms: _215  and  _216
REMARK   90  A    between atoms: _226  and  _228
REMARK   91  A    between atoms: _228  and  _229
REMARK   92  A    between atoms: _228  and  _231
REMARK   93  A    between atoms: _231  and  _232
REMARK   94  A    between atoms: _238  and  _240
REMARK   95  A    between atoms: _240  and  _241
REMARK   96  A    between atoms: _240  and  _243
REMARK   97  A    between atoms: _243  and  _244
REMARK   98  A    between atoms: _244  and  _245
REMARK   99  A    between atoms: _245  and  _246
REMARK  100  A    between atoms: _255  and  _257
REMARK  101  A    between atoms: _257  and  _258
REMARK  102  A    between atoms: _257  and  _260
REMARK  103  A    between atoms: _260  and  _261
REMARK  104  A    between atoms: _266  and  _268
REMARK  105  A    between atoms: _268  and  _269
REMARK  106  A    between atoms: _272  and  _274
REMARK  107  A    between atoms: _274  and  _275
REMARK  108  A    between atoms: _274  and  _277
REMARK  109  A    between atoms: _277  and  _278
REMARK  110  A    between atoms: _278  and  _279
REMARK  111  A    between atoms: _279  and  _280
REMARK  112  A    between atoms: _280  and  _281
REMARK  113  A    between atoms: _285  and  _287
REMARK  114  A    between atoms: _287  and  _288
REMARK  115  A    between atoms: _287  and  _290
REMARK  116  A    between atoms: _290  and  _291
REMARK  117  A    between atoms: _294  and  _296
REMARK  118  A    between atoms: _296  and  _297
REMARK  119  A    between atoms: _296  and  _299
REMARK  120  A    between atoms: _299  and  _300
REMARK  121  A    between atoms: _300  and  _301
REMARK  122  A    between atoms: _304  and  _306
REMARK  123  A    between atoms: _306  and  _307
REMARK  124  A    between atoms: _306  and  _309
REMARK  125  A    between atoms: _309  and  _310
REMARK  126  A    between atoms: _313  and  _315
REMARK  127  A    between atoms: _315  and  _316
REMARK  128  A    between atoms: _315  and  _318
REMARK  129  A    between atoms: _318  and  _319
REMARK  130  A    between atoms: _322  and  _324
REMARK  131  A    between atoms: _324  and  _325
REMARK  132  A    between atoms: _324  and  _327
REMARK  133  A    between atoms: _327  and  _328
REMARK  134  A    between atoms: _331  and  _332
REMARK  135  A    between atoms: _337  and  _339
REMARK  136  A    between atoms: _339  and  _340
REMARK  137  A    between atoms: _339  and  _342
REMARK  138  A    between atoms: _342  and  _343
REMARK  139  A    between atoms: _345  and  _347
REMARK  140  A    between atoms: _347  and  _348
REMARK  141  A    between atoms: _347  and  _350
REMARK  142  A    between atoms: _350  and  _351
REMARK  143  A    between atoms: _356  and  _357
REMARK  144  A    between atoms: _359  and  _361
REMARK  145  A    between atoms: _361  and  _362
REMARK  146  A    between atoms: _361  and  _364
REMARK  147  A    between atoms: _364  and  _365
REMARK  148  A    between atoms: _370  and  _371
REMARK  149  A    between atoms: _373  and  _375
REMARK  150  A    between atoms: _375  and  _376
REMARK  151  A    between atoms: _375  and  _378
REMARK  152  A    between atoms: _378  and  _379
REMARK  153  A    between atoms: _384  and  _385
REMARK  154  A    between atoms: _387  and  _389
REMARK  155  A    between atoms: _389  and  _390
REMARK  156  A    between atoms: _389  and  _392
REMARK  157  A    between atoms: _392  and  _393
REMARK  158  A    between atoms: _393  and  _394
REMARK  159  A    between atoms: _397  and  _399
REMARK  160  A    between atoms: _399  and  _400
REMARK  161  A    between atoms: _402  and  _404
REMARK  162  A    between atoms: _404  and  _405
REMARK  163  A    between atoms: _404  and  _407
REMARK  164  A    between atoms: _407  and  _408
REMARK                            x       y       z     vdW  Elec       q    Type
REMARK                         _______ _______ _______ _____ _____    ______ ____
ROOT
ATOM      1  CG  TYR A   1      -5.059  -2.049   3.950  0.00  0.00    -0.020 A 
ATOM      2  CD2 TYR A   1      -6.371  -1.901   3.506  0.00  0.00    -0.001 A 
ATOM      3  CE2 TYR A   1      -6.709  -0.947   2.575  0.00  0.00    +0.036 A 
ATOM      4  CZ  TYR A   1      -5.732  -0.124   2.058  0.00  0.00    +0.134 A 
ATOM      5  CE1 TYR A   1      -4.415  -0.261   2.466  0.00  0.00    +0.036 A 
ATOM      6  CD1 TYR A   1      -4.084  -1.227   3.400  0.00  0.00    -0.001 A 
ENDROOT
BRANCH   4   7
ATOM      7  OH  TYR A   1      -6.078   0.833   1.122  0.00  0.00    -0.506 OA
ATOM      8  HH  TYR A   1      -6.740   1.455   1.517  0.00  0.00    +0.292 HD
ENDBRANCH   4   7
BRANCH   1   9
ATOM      9  CB  TYR A   1      -4.712  -3.132   4.940  0.00  0.00    +0.051 C 
BRANCH   9  10
ATOM     10  CA  TYR A   1      -3.645  -2.822   5.984  0.00  0.00    +0.137 C 
BRANCH  10  11
ATOM     11  N   TYR A   1      -2.326  -2.709   5.381  0.00  0.00    -0.239 NA
ATOM     12  H   TYR A   1      -2.229  -2.784   4.348  0.00  0.00    +0.142 HD
ENDBRANCH  10  11
BRANCH  10  13
ATOM     13  C   TYR A   1      -3.567  -4.032   6.892  0.00  0.00    +0.224 C 
ATOM     14  O   TYR A   1      -2.801  -4.963   6.625  0.00  0.00    -0.287 OA
ENDBRANCH  10  13
ENDBRANCH   9  10
ENDBRANCH   1   9
TORSDOF 5
REMARK  Name = ../refined-set-2016/3ijh/3ijh_pocket.pdb
REMARK  164 active torsions:
REMARK  status: ('A' for Active; 'I' for Inactive)
REMARK    1  A    between atoms: _1  and  _3
REMARK    2  A    between atoms: _3  and  _4
REMARK    3  A    between atoms: _3  and  _6
REMARK    4  A    between atoms: _6  and  _7
REMARK    5  A    between atoms: _10  and  _12
REMARK    6  A    between atoms: _12  and  _13
REMARK    7  A    between atoms: _12  and  _15
REMARK    8  A    between atoms: _15  and  _16
REMARK    9  A    between atoms: _19  and  _21
REMARK   10  A    between atoms: _21  and  _22
REMARK   11  A    between atoms: _21  and  _24
REMARK   12  A    between atoms: _24  and  _25
REMARK   13  A    between atoms: _30  and  _32
REMARK   14  A    between atoms: _32  and  _33
REMARK   15  A    between atoms: _32  and  _35
REMARK   16  A    between atoms: _35  and  _36
REMARK   17  A    between atoms: _38  and  _40
REMARK   18  A    between atoms: _40  and  _41
REMARK   19  A    between atoms: _40  and  _43
REMARK   20  A    between atoms: _43  and  _44
REMARK   21  A    between atoms: _44  and  _45
REMARK   22  A    between atoms: _45  and  _46
REMARK   23  A    between atoms: _55  and  _57
REMARK   24  A    between atoms: _57  and  _58
REMARK   25  A    between atoms: _57  and  _60
REMARK   26  A    between atoms: _60  and  _61
REMARK   27  A    between atoms: _64  and  _66
REMARK   28  A    between atoms: _66  and  _67
REMARK   29  A    between atoms: _66  and  _69
REMARK   30  A    between atoms: _69  and  _70
REMARK   31  A    between atoms: _70  and  _71
REMARK   32  A    between atoms: _71  and  _72
REMARK   33  A    between atoms: _72  and  _73
REMARK   34  A    between atoms: _77  and  _79
REMARK   35  A    between atoms: _79  and  _80
REMARK   36  A    between atoms: _79  and  _82
REMARK   37  A    between atoms: _82  and  _83
REMARK   38  A    between atoms: _88  and  _89
REMARK   39  A    between atoms: _91  and  _93
REMARK   40  A    between atoms: _93  and  _94
REMARK   41  A    between atoms: _93  and  _96
REMARK   42  A    between atoms: _96  and  _97
REMARK   43  A    between atoms: _107  and  _109
REMARK   44  A    between atoms: _109  and  _110
REMARK   45  A    between atoms: _109  and  _112
REMARK   46  A    between atoms: _112  and  _113
REMARK   47  A    between atoms: _113  and  _114
REMARK   48  A    between atoms: _114  and  _115
REMARK   49  A    between atoms: _115  and  _116
REMARK   50  A    between atoms: _120  and  _122
REMARK   51  A    between atoms: _122  and  _123
REMARK   52  A    between atoms: _122  and  _125
REMARK   53  A    between atoms: _125  and  _126
REMARK   54  A    between atoms: _126  and  _127
REMARK   55  A    between atoms: _132  and  _134
REMARK   56  A    between atoms: _134  and  _135
REMARK   57  A    between atoms: _134  and  _137
REMARK   58  A    between atoms: _137  and  _138
REMARK   59  A    between atoms: _140  and  _142
REMARK   60  A    between atoms: _142  and  _143
REMARK   61  A    between atoms: _142  and  _145
REMARK   62  A    between atoms: _145  and  _146
REMARK   63  A    between atoms: _151  and  _153
REMARK   64  A    between atoms: _153  and  _154
REMARK   65  A    between atoms: _153  and  _156
REMARK   66  A    between atoms: _156  and  _157
REMARK   67  A    between atoms: _162  and  _164
REMARK   68  A    between atoms: _164  and  _165
REMARK   69  A    between atoms: _164  and  _167
REMARK   70  A    between atoms: _167  and  _168
REMARK   71  A    between atoms: _171  and  _173
REMARK   72  A    between atoms: _173  and  _174
REMARK   73  A    between atoms: _173  and  _176
REMARK   74  A    between atoms: _176  and  _177
REMARK   75  A    between atoms: _177  and  _178
REMARK   76  A    between atoms: _178  and  _179
REMARK   77  A    between atoms: _188  and  _190
REMARK   78  A    between atoms: _190  and  _191
REMARK   79  A    between atoms: _190  and  _193
REMARK   80  A    between atoms: _193  and  _194
REMARK   81  A    between atoms: _199  and  _200
REMARK   82  A    between atoms: _202  and  _204
REMARK   83  A    between atoms: _204  and  _205
REMARK   84  A    between atoms: _204  and  _207
REMARK   85  A    between atoms: _207  and  _208
REMARK   86  A    between atoms: _210  and  _212
REMARK   87  A    between atoms: _212  and  _213
REMARK   88  A    between atoms: _212  and  _215
REMARK   89  A    between atoms: _215  and  _216
REMARK   90  A    between atoms: _226  and  _228
REMARK   91  A    between atoms: _228  and  _229
REMARK   92  A    between atoms: _228  and  _231
REMARK   93  A    between atoms: _231  and  _232
REMARK   94  A    between atoms: _238  and  _240
REMARK   95  A    between atoms: _240  and  _241
REMARK   96  A    between atoms: _240  and  _243
REMARK   97  A    between atoms: _243  and  _244
REMARK   98  A    between atoms: _244  and  _245
REMARK   99  A    between atoms: _245  and  _246
REMARK  100  A    between atoms: _255  and  _257
REMARK  101  A    between atoms: _257  and  _258
REMARK  102  A    between atoms: _257  and  _260
REMARK  103  A    between atoms: _260  and  _261
REMARK  104  A    between atoms: _266  and  _268
REMARK  105  A    between atoms: _268  and  _269
REMARK  106  A    between atoms: _272  and  _274
REMARK  107  A    between atoms: _274  and  _275
REMARK  108  A    between atoms: _274  and  _277
REMARK  109  A    between atoms: _277  and  _278
REMARK  110  A    between atoms: _278  and  _279
REMARK  111  A    between atoms: _279  and  _280
REMARK  112  A    between atoms: _280  and  _281
REMARK  113  A    between atoms: _285  and  _287
REMARK  114  A    between atoms: _287  and  _288
REMARK  115  A    between atoms: _287  and  _290
REMARK  116  A    between atoms: _290  and  _291
REMARK  117  A    between atoms: _294  and  _296
REMARK  118  A    between atoms: _296  and  _297
REMARK  119  A    between atoms: _296  and  _299
REMARK  120  A    between atoms: _299  and  _300
REMARK  121  A    between atoms: _300  and  _301
REMARK  122  A    between atoms: _304  and  _306
REMARK  123  A    between atoms: _306  and  _307
REMARK  124  A    between atoms: _306  and  _309
REMARK  125  A    between atoms: _309  and  _310
REMARK  126  A    between atoms: _313  and  _315
REMARK  127  A    between atoms: _315  and  _316
REMARK  128  A    between atoms: _315  and  _318
REMARK  129  A    between atoms: _318  and  _319
REMARK  130  A    between atoms: _322  and  _324
REMARK  131  A    between atoms: _324  and  _325
REMARK  132  A    between atoms: _324  and  _327
REMARK  133  A    between atoms: _327  and  _328
REMARK  134  A    between atoms: _331  and  _332
REMARK  135  A    between atoms: _337  and  _339
REMARK  136  A    between atoms: _339  and  _340
REMARK  137  A    between atoms: _339  and  _342
REMARK  138  A    between atoms: _342  and  _343
REMARK  139  A    between atoms: _345  and  _347
REMARK  140  A    between atoms: _347  and  _348
REMARK  141  A    between atoms: _347  and  _350
REMARK  142  A    between atoms: _350  and  _351
REMARK  143  A    between atoms: _356  and  _357
REMARK  144  A    between atoms: _359  and  _361
REMARK  145  A    between atoms: _361  and  _362
REMARK  146  A    between atoms: _361  and  _364
REMARK  147  A    between atoms: _364  and  _365
REMARK  148  A    between atoms: _370  and  _371
REMARK  149  A    between atoms: _373  and  _375
REMARK  150  A    between atoms: _375  and  _376
REMARK  151  A    between atoms: _375  and  _378
REMARK  152  A    between atoms: _378  and  _379
REMARK  153  A    between atoms: _384  and  _385
REMARK  154  A    between atoms: _387  and  _389
REMARK  155  A    between atoms: _389  and  _390
REMARK  156  A    between atoms: _389  and  _392
REMARK  157  A    between atoms: _392  and  _393
REMARK  158  A    between atoms: _393  and  _394
REMARK  159  A    between atoms: _397  and  _399
REMARK  160  A    between atoms: _399  and  _400
REMARK  161  A    between atoms: _402  and  _404
REMARK  162  A    between atoms: _404  and  _405
REMARK  163  A    between atoms: _404  and  _407
REMARK  164  A    between atoms: _407  and  _408
REMARK                            x       y       z     vdW  Elec       q    Type
REMARK                         _______ _______ _______ _____ _____    ______ ____
ROOT
ATOM      1  CA  SER A   1      -7.637  -7.279   9.142  0.00  0.00    +0.163 C 
ENDROOT
BRANCH   1   2
ATOM      2  N   SER A   1      -6.254  -6.824   8.977  0.00  0.00    -0.237 NA
ATOM      3  H   SER A   1      -5.512  -7.525   8.776  0.00  0.00    +0.142 HD
ENDBRANCH   1   2
BRANCH   1   4
ATOM      4  CB  SER A   1      -7.823  -8.180  10.361  0.00  0.00    +0.227 C 
ATOM      5  OG  SER A   1      -6.886  -8.843  10.811  0.00  0.00    -0.287 OA
ENDBRANCH   1   4
BRANCH   1   6
ATOM      6  C   SER A   1      -8.108  -8.043   7.899  0.00  0.00    +0.162 C 
BRANCH   6   7
ATOM      7  O   SER A   1      -8.531  -7.172   6.869  0.00  0.00    -0.380 OA
ATOM      8  H   SER A   1      -7.779  -6.585   6.605  0.00  0.00    +0.211 HD
ENDBRANCH   6   7
ENDBRANCH   1   6
TORSDOF 4
REMARK  Name = ../refined-set-2016/3ijh/3ijh_pocket.pdb
REMARK  164 active torsions:
REMARK  status: ('A' for Active; 'I' for Inactive)
REMARK    1  A    between atoms: _1  and  _3
REMARK    2  A    between atoms: _3  and  _4
REMARK    3  A    between atoms: _3  and  _6
REMARK    4  A    between atoms: _6  and  _7
REMARK    5  A    between atoms: _10  and  _12
REMARK    6  A    between atoms: _12  and  _13
REMARK    7  A    between atoms: _12  and  _15
REMARK    8  A    between atoms: _15  and  _16
REMARK    9  A    between atoms: _19  and  _21
REMARK   10  A    between atoms: _21  and  _22
REMARK   11  A    between atoms: _21  and  _24
REMARK   12  A    between atoms: _24  and  _25
REMARK   13  A    between atoms: _30  and  _32
REMARK   14  A    between atoms: _32  and  _33
REMARK   15  A    between atoms: _32  and  _35
REMARK   16  A    between atoms: _35  and  _36
REMARK   17  A    between atoms: _38  and  _40
REMARK   18  A    between atoms: _40  and  _41
REMARK   19  A    between atoms: _40  and  _43
REMARK   20  A    between atoms: _43  and  _44
REMARK   21  A    between atoms: _44  and  _45
REMARK   22  A    between atoms: _45  and  _46
REMARK   23  A    between atoms: _55  and  _57
REMARK   24  A    between atoms: _57  and  _58
REMARK   25  A    between atoms: _57  and  _60
REMARK   26  A    between atoms: _60  and  _61
REMARK   27  A    between atoms: _64  and  _66
REMARK   28  A    between atoms: _66  and  _67
REMARK   29  A    between atoms: _66  and  _69
REMARK   30  A    between atoms: _69  and  _70
REMARK   31  A    between atoms: _70  and  _71
REMARK   32  A    between atoms: _71  and  _72
REMARK   33  A    between atoms: _72  and  _73
REMARK   34  A    between atoms: _77  and  _79
REMARK   35  A    between atoms: _79  and  _80
REMARK   36  A    between atoms: _79  and  _82
REMARK   37  A    between atoms: _82  and  _83
REMARK   38  A    between atoms: _88  and  _89
REMARK   39  A    between atoms: _91  and  _93
REMARK   40  A    between atoms: _93  and  _94
REMARK   41  A    between atoms: _93  and  _96
REMARK   42  A    between atoms: _96  and  _97
REMARK   43  A    between atoms: _107  and  _109
REMARK   44  A    between atoms: _109  and  _110
REMARK   45  A    between atoms: _109  and  _112
REMARK   46  A    between atoms: _112  and  _113
REMARK   47  A    between atoms: _113  and  _114
REMARK   48  A    between atoms: _114  and  _115
REMARK   49  A    between atoms: _115  and  _116
REMARK   50  A    between atoms: _120  and  _122
REMARK   51  A    between atoms: _122  and  _123
REMARK   52  A    between atoms: _122  and  _125
REMARK   53  A    between atoms: _125  and  _126
REMARK   54  A    between atoms: _126  and  _127
REMARK   55  A    between atoms: _132  and  _134
REMARK   56  A    between atoms: _134  and  _135
REMARK   57  A    between atoms: _134  and  _137
REMARK   58  A    between atoms: _137  and  _138
REMARK   59  A    between atoms: _140  and  _142
REMARK   60  A    between atoms: _142  and  _143
REMARK   61  A    between atoms: _142  and  _145
REMARK   62  A    between atoms: _145  and  _146
REMARK   63  A    between atoms: _151  and  _153
REMARK   64  A    between atoms: _153  and  _154
REMARK   65  A    between atoms: _153  and  _156
REMARK   66  A    between atoms: _156  and  _157
REMARK   67  A    between atoms: _162  and  _164
REMARK   68  A    between atoms: _164  and  _165
REMARK   69  A    between atoms: _164  and  _167
REMARK   70  A    between atoms: _167  and  _168
REMARK   71  A    between atoms: _171  and  _173
REMARK   72  A    between atoms: _173  and  _174
REMARK   73  A    between atoms: _173  and  _176
REMARK   74  A    between atoms: _176  and  _177
REMARK   75  A    between atoms: _177  and  _178
REMARK   76  A    between atoms: _178  and  _179
REMARK   77  A    between atoms: _188  and  _190
REMARK   78  A    between atoms: _190  and  _191
REMARK   79  A    between atoms: _190  and  _193
REMARK   80  A    between atoms: _193  and  _194
REMARK   81  A    between atoms: _199  and  _200
REMARK   82  A    between atoms: _202  and  _204
REMARK   83  A    between atoms: _204  and  _205
REMARK   84  A    between atoms: _204  and  _207
REMARK   85  A    between atoms: _207  and  _208
REMARK   86  A    between atoms: _210  and  _212
REMARK   87  A    between atoms: _212  and  _213
REMARK   88  A    between atoms: _212  and  _215
REMARK   89  A    between atoms: _215  and  _216
REMARK   90  A    between atoms: _226  and  _228
REMARK   91  A    between atoms: _228  and  _229
REMARK   92  A    between atoms: _228  and  _231
REMARK   93  A    between atoms: _231  and  _232
REMARK   94  A    between atoms: _238  and  _240
REMARK   95  A    between atoms: _240  and  _241
REMARK   96  A    between atoms: _240  and  _243
REMARK   97  A    between atoms: _243  and  _244
REMARK   98  A    between atoms: _244  and  _245
REMARK   99  A    between atoms: _245  and  _246
REMARK  100  A    between atoms: _255  and  _257
REMARK  101  A    between atoms: _257  and  _258
REMARK  102  A    between atoms: _257  and  _260
REMARK  103  A    between atoms: _260  and  _261
REMARK  104  A    between atoms: _266  and  _268
REMARK  105  A    between atoms: _268  and  _269
REMARK  106  A    between atoms: _272  and  _274
REMARK  107  A    between atoms: _274  and  _275
REMARK  108  A    between atoms: _274  and  _277
REMARK  109  A    between atoms: _277  and  _278
REMARK  110  A    between atoms: _278  and  _279
REMARK  111  A    between atoms: _279  and  _280
REMARK  112  A    between atoms: _280  and  _281
REMARK  113  A    between atoms: _285  and  _287
REMARK  114  A    between atoms: _287  and  _288
REMARK  115  A    between atoms: _287  and  _290
REMARK  116  A    between atoms: _290  and  _291
REMARK  117  A    between atoms: _294  and  _296
REMARK  118  A    between atoms: _296  and  _297
REMARK  119  A    between atoms: _296  and  _299
REMARK  120  A    between atoms: _299  and  _300
REMARK  121  A    between atoms: _300  and  _301
REMARK  122  A    between atoms: _304  and  _306
REMARK  123  A    between atoms: _306  and  _307
REMARK  124  A    between atoms: _306  and  _309
REMARK  125  A    between atoms: _309  and  _310
REMARK  126  A    between atoms: _313  and  _315
REMARK  127  A    between atoms: _315  and  _316
REMARK  128  A    between atoms: _315  and  _318
REMARK  129  A    between atoms: _318  and  _319
REMARK  130  A    between atoms: _322  and  _324
REMARK  131  A    between atoms: _324  and  _325
REMARK  132  A    between atoms: _324  and  _327
REMARK  133  A    between atoms: _327  and  _328
REMARK  134  A    between atoms: _331  and  _332
REMARK  135  A    between atoms: _337  and  _339
REMARK  136  A    between atoms: _339  and  _340
REMARK  137  A    between atoms: _339  and  _342
REMARK  138  A    between atoms: _342  and  _343
REMARK  139  A    between atoms: _345  and  _347
REMARK  140  A    between atoms: _347  and  _348
REMARK  141  A    between atoms: _347  and  _350
REMARK  142  A    between atoms: _350  and  _351
REMARK  143  A    between atoms: _356  and  _357
REMARK  144  A    between atoms: _359  and  _361
REMARK  145  A    between atoms: _361  and  _362
REMARK  146  A    between atoms: _361  and  _364
REMARK  147  A    between atoms: _364  and  _365
REMARK  148  A    between atoms: _370  and  _371
REMARK  149  A    between atoms: _373  and  _375
REMARK  150  A    between atoms: _375  and  _376
REMARK  151  A    between atoms: _375  and  _378
REMARK  152  A    between atoms: _378  and  _379
REMARK  153  A    between atoms: _384  and  _385
REMARK  154  A    between atoms: _387  and  _389
REMARK  155  A    between atoms: _389  and  _390
REMARK  156  A    between atoms: _389  and  _392
REMARK  157  A    between atoms: _392  and  _393
REMARK  158  A    between atoms: _393  and  _394
REMARK  159  A    between atoms: _397  and  _399
REMARK  160  A    between atoms: _399  and  _400
REMARK  161  A    between atoms: _402  and  _404
REMARK  162  A    between atoms: _404  and  _405
REMARK  163  A    between atoms: _404  and  _407
REMARK  164  A    between atoms: _407  and  _408
REMARK                            x       y       z     vdW  Elec       q    Type
REMARK                         _______ _______ _______ _____ _____    ______ ____
ROOT
ATOM      1  CG  TRP A   1     -13.233  -9.086   6.709  0.00  0.00    -0.002 A 
ATOM      2  CD1 TRP A   1     -11.871  -9.001   6.782  0.00  0.00    +0.068 A 
ATOM      3  NE1 TRP A   1     -11.473  -7.686   6.706  0.00  0.00    -0.352 N 
ATOM      4  HE1 TRP A   1     -10.490  -7.349   6.740  0.00  0.00    +0.166 HD
ATOM      5  CE2 TRP A   1     -12.583  -6.893   6.578  0.00  0.00    +0.056 A 
ATOM      6  CZ2 TRP A   1     -12.689  -5.508   6.464  0.00  0.00    +0.017 A 
ATOM      7  CH2 TRP A   1     -13.944  -4.977   6.348  0.00  0.00    +0.001 A 
ATOM      8  CZ3 TRP A   1     -15.085  -5.789   6.346  0.00  0.00    +0.000 A 
ATOM      9  CE3 TRP A   1     -14.984  -7.168   6.463  0.00  0.00    +0.001 A 
ATOM     10  CD2 TRP A   1     -13.712  -7.740   6.578  0.00  0.00    +0.013 A 
ENDROOT
BRANCH   1  11
ATOM     11  CB  TRP A   1     -14.062 -10.336   6.757  0.00  0.00    +0.053 C 
BRANCH  11  12
ATOM     12  CA  TRP A   1     -14.278 -10.868   8.173  0.00  0.00    +0.137 C 
BRANCH  12  13
ATOM     13  N   TRP A   1     -15.075 -12.088   8.144  0.00  0.00    -0.239 NA
ATOM     14  H   TRP A   1     -15.592 -12.339   7.277  0.00  0.00    +0.142 HD
ENDBRANCH  12  13
BRANCH  12  15
ATOM     15  C   TRP A   1     -14.979  -9.813   9.027  0.00  0.00    +0.224 C 
ATOM     16  O   TRP A   1     -16.160  -9.556   8.846  0.00  0.00    -0.287 OA
ENDBRANCH  12  15
ENDBRANCH  11  12
ENDBRANCH   1  11
TORSDOF 4
REMARK  Name = ../refined-set-2016/3ijh/3ijh_pocket.pdb
REMARK  164 active torsions:
REMARK  status: ('A' for Active; 'I' for Inactive)
REMARK    1  A    between atoms: _1  and  _3
REMARK    2  A    between atoms: _3  and  _4
REMARK    3  A    between atoms: _3  and  _6
REMARK    4  A    between atoms: _6  and  _7
REMARK    5  A    between atoms: _10  and  _12
REMARK    6  A    between atoms: _12  and  _13
REMARK    7  A    between atoms: _12  and  _15
REMARK    8  A    between atoms: _15  and  _16
REMARK    9  A    between atoms: _19  and  _21
REMARK   10  A    between atoms: _21  and  _22
REMARK   11  A    between atoms: _21  and  _24
REMARK   12  A    between atoms: _24  and  _25
REMARK   13  A    between atoms: _30  and  _32
REMARK   14  A    between atoms: _32  and  _33
REMARK   15  A    between atoms: _32  and  _35
REMARK   16  A    between atoms: _35  and  _36
REMARK   17  A    between atoms: _38  and  _40
REMARK   18  A    between atoms: _40  and  _41
REMARK   19  A    between atoms: _40  and  _43
REMARK   20  A    between atoms: _43  and  _44
REMARK   21  A    between atoms: _44  and  _45
REMARK   22  A    between atoms: _45  and  _46
REMARK   23  A    between atoms: _55  and  _57
REMARK   24  A    between atoms: _57  and  _58
REMARK   25  A    between atoms: _57  and  _60
REMARK   26  A    between atoms: _60  and  _61
REMARK   27  A    between atoms: _64  and  _66
REMARK   28  A    between atoms: _66  and  _67
REMARK   29  A    between atoms: _66  and  _69
REMARK   30  A    between atoms: _69  and  _70
REMARK   31  A    between atoms: _70  and  _71
REMARK   32  A    between atoms: _71  and  _72
REMARK   33  A    between atoms: _72  and  _73
REMARK   34  A    between atoms: _77  and  _79
REMARK   35  A    between atoms: _79  and  _80
REMARK   36  A    between atoms: _79  and  _82
REMARK   37  A    between atoms: _82  and  _83
REMARK   38  A    between atoms: _88  and  _89
REMARK   39  A    between atoms: _91  and  _93
REMARK   40  A    between atoms: _93  and  _94
REMARK   41  A    between atoms: _93  and  _96
REMARK   42  A    between atoms: _96  and  _97
REMARK   43  A    between atoms: _107  and  _109
REMARK   44  A    between atoms: _109  and  _110
REMARK   45  A    between atoms: _109  and  _112
REMARK   46  A    between atoms: _112  and  _113
REMARK   47  A    between atoms: _113  and  _114
REMARK   48  A    between atoms: _114  and  _115
REMARK   49  A    between atoms: _115  and  _116
REMARK   50  A    between atoms: _120  and  _122
REMARK   51  A    between atoms: _122  and  _123
REMARK   52  A    between atoms: _122  and  _125
REMARK   53  A    between atoms: _125  and  _126
REMARK   54  A    between atoms: _126  and  _127
REMARK   55  A    between atoms: _132  and  _134
REMARK   56  A    between atoms: _134  and  _135
REMARK   57  A    between atoms: _134  and  _137
REMARK   58  A    between atoms: _137  and  _138
REMARK   59  A    between atoms: _140  and  _142
REMARK   60  A    between atoms: _142  and  _143
REMARK   61  A    between atoms: _142  and  _145
REMARK   62  A    between atoms: _145  and  _146
REMARK   63  A    between atoms: _151  and  _153
REMARK   64  A    between atoms: _153  and  _154
REMARK   65  A    between atoms: _153  and  _156
REMARK   66  A    between atoms: _156  and  _157
REMARK   67  A    between atoms: _162  and  _164
REMARK   68  A    between atoms: _164  and  _165
REMARK   69  A    between atoms: _164  and  _167
REMARK   70  A    between atoms: _167  and  _168
REMARK   71  A    between atoms: _171  and  _173
REMARK   72  A    between atoms: _173  and  _174
REMARK   73  A    between atoms: _173  and  _176
REMARK   74  A    between atoms: _176  and  _177
REMARK   75  A    between atoms: _177  and  _178
REMARK   76  A    between atoms: _178  and  _179
REMARK   77  A    between atoms: _188  and  _190
REMARK   78  A    between atoms: _190  and  _191
REMARK   79  A    between atoms: _190  and  _193
REMARK   80  A    between atoms: _193  and  _194
REMARK   81  A    between atoms: _199  and  _200
REMARK   82  A    between atoms: _202  and  _204
REMARK   83  A    between atoms: _204  and  _205
REMARK   84  A    between atoms: _204  and  _207
REMARK   85  A    between atoms: _207  and  _208
REMARK   86  A    between atoms: _210  and  _212
REMARK   87  A    between atoms: _212  and  _213
REMARK   88  A    between atoms: _212  and  _215
REMARK   89  A    between atoms: _215  and  _216
REMARK   90  A    between atoms: _226  and  _228
REMARK   91  A    between atoms: _228  and  _229
REMARK   92  A    between atoms: _228  and  _231
REMARK   93  A    between atoms: _231  and  _232
REMARK   94  A    between atoms: _238  and  _240
REMARK   95  A    between atoms: _240  and  _241
REMARK   96  A    between atoms: _240  and  _243
REMARK   97  A    between atoms: _243  and  _244
REMARK   98  A    between atoms: _244  and  _245
REMARK   99  A    between atoms: _245  and  _246
REMARK  100  A    between atoms: _255  and  _257
REMARK  101  A    between atoms: _257  and  _258
REMARK  102  A    between atoms: _257  and  _260
REMARK  103  A    between atoms: _260  and  _261
REMARK  104  A    between atoms: _266  and  _268
REMARK  105  A    between atoms: _268  and  _269
REMARK  106  A    between atoms: _272  and  _274
REMARK  107  A    between atoms: _274  and  _275
REMARK  108  A    between atoms: _274  and  _277
REMARK  109  A    between atoms: _277  and  _278
REMARK  110  A    between atoms: _278  and  _279
REMARK  111  A    between atoms: _279  and  _280
REMARK  112  A    between atoms: _280  and  _281
REMARK  113  A    between atoms: _285  and  _287
REMARK  114  A    between atoms: _287  and  _288
REMARK  115  A    between atoms: _287  and  _290
REMARK  116  A    between atoms: _290  and  _291
REMARK  117  A    between atoms: _294  and  _296
REMARK  118  A    between atoms: _296  and  _297
REMARK  119  A    between atoms: _296  and  _299
REMARK  120  A    between atoms: _299  and  _300
REMARK  121  A    between atoms: _300  and  _301
REMARK  122  A    between atoms: _304  and  _306
REMARK  123  A    between atoms: _306  and  _307
REMARK  124  A    between atoms: _306  and  _309
REMARK  125  A    between atoms: _309  and  _310
REMARK  126  A    between atoms: _313  and  _315
REMARK  127  A    between atoms: _315  and  _316
REMARK  128  A    between atoms: _315  and  _318
REMARK  129  A    between atoms: _318  and  _319
REMARK  130  A    between atoms: _322  and  _324
REMARK  131  A    between atoms: _324  and  _325
REMARK  132  A    between atoms: _324  and  _327
REMARK  133  A    between atoms: _327  and  _328
REMARK  134  A    between atoms: _331  and  _332
REMARK  135  A    between atoms: _337  and  _339
REMARK  136  A    between atoms: _339  and  _340
REMARK  137  A    between atoms: _339  and  _342
REMARK  138  A    between atoms: _342  and  _343
REMARK  139  A    between atoms: _345  and  _347
REMARK  140  A    between atoms: _347  and  _348
REMARK  141  A    between atoms: _347  and  _350
REMARK  142  A    between atoms: _350  and  _351
REMARK  143  A    between atoms: _356  and  _357
REMARK  144  A    between atoms: _359  and  _361
REMARK  145  A    between atoms: _361  and  _362
REMARK  146  A    between atoms: _361  and  _364
REMARK  147  A    between atoms: _364  and  _365
REMARK  148  A    between atoms: _370  and  _371
REMARK  149  A    between atoms: _373  and  _375
REMARK  150  A    between atoms: _375  and  _376
REMARK  151  A    between atoms: _375  and  _378
REMARK  152  A    between atoms: _378  and  _379
REMARK  153  A    between atoms: _384  and  _385
REMARK  154  A    between atoms: _387  and  _389
REMARK  155  A    between atoms: _389  and  _390
REMARK  156  A    between atoms: _389  and  _392
REMARK  157  A    between atoms: _392  and  _393
REMARK  158  A    between atoms: _393  and  _394
REMARK  159  A    between atoms: _397  and  _399
REMARK  160  A    between atoms: _399  and  _400
REMARK  161  A    between atoms: _402  and  _404
REMARK  162  A    between atoms: _404  and  _405
REMARK  163  A    between atoms: _404  and  _407
REMARK  164  A    between atoms: _407  and  _408
REMARK                            x       y       z     vdW  Elec       q    Type
REMARK                         _______ _______ _______ _____ _____    ______ ____
ROOT
ATOM      1  CB  PHE A   1      -9.065  -4.021   7.396  0.00  0.00    +0.051 C 
ENDROOT
BRANCH   1   2
ATOM      2  CG  PHE A   1      -9.565  -3.185   6.235  0.00  0.00    -0.020 A 
ATOM      3  CD2 PHE A   1      -9.837  -1.832   6.375  0.00  0.00    -0.004 A 
ATOM      4  CE2 PHE A   1     -10.275  -1.077   5.294  0.00  0.00    -0.000 A 
ATOM      5  CZ  PHE A   1     -10.422  -1.670   4.051  0.00  0.00    -0.000 A 
ATOM      6  CE1 PHE A   1     -10.138  -3.014   3.893  0.00  0.00    -0.000 A 
ATOM      7  CD1 PHE A   1      -9.705  -3.760   4.975  0.00  0.00    -0.004 A 
ENDBRANCH   1   2
BRANCH   1   8
ATOM      8  CA  PHE A   1      -9.643  -3.639   8.776  0.00  0.00    +0.137 C 
BRANCH   8   9
ATOM      9  N   PHE A   1     -11.070  -3.914   8.879  0.00  0.00    -0.239 NA
ATOM     10  H   PHE A   1     -11.759  -3.212   8.541  0.00  0.00    +0.142 HD
ENDBRANCH   8   9
BRANCH   8  11
ATOM     11  C   PHE A   1      -9.284  -2.211   9.159  0.00  0.00    +0.224 C 
ATOM     12  O   PHE A   1     -10.157  -1.363   9.347  0.00  0.00    -0.287 OA
ENDBRANCH   8  11
ENDBRANCH   1   8
TORSDOF 4
REMARK  Name = ../refined-set-2016/3ijh/3ijh_pocket.pdb
REMARK  164 active torsions:
REMARK  status: ('A' for Active; 'I' for Inactive)
REMARK    1  A    between atoms: _1  and  _3
REMARK    2  A    between atoms: _3  and  _4
REMARK    3  A    between atoms: _3  and  _6
REMARK    4  A    between atoms: _6  and  _7
REMARK    5  A    between atoms: _10  and  _12
REMARK    6  A    between atoms: _12  and  _13
REMARK    7  A    between atoms: _12  and  _15
REMARK    8  A    between atoms: _15  and  _16
REMARK    9  A    between atoms: _19  and  _21
REMARK   10  A    between atoms: _21  and  _22
REMARK   11  A    between atoms: _21  and  _24
REMARK   12  A    between atoms: _24  and  _25
REMARK   13  A    between atoms: _30  and  _32
REMARK   14  A    between atoms: _32  and  _33
REMARK   15  A    between atoms: _32  and  _35
REMARK   16  A    between atoms: _35  and  _36
REMARK   17  A    between atoms: _38  and  _40
REMARK   18  A    between atoms: _40  and  _41
REMARK   19  A    between atoms: _40  and  _43
REMARK   20  A    between atoms: _43  and  _44
REMARK   21  A    between atoms: _44  and  _45
REMARK   22  A    between atoms: _45  and  _46
REMARK   23  A    between atoms: _55  and  _57
REMARK   24  A    between atoms: _57  and  _58
REMARK   25  A    between atoms: _57  and  _60
REMARK   26  A    between atoms: _60  and  _61
REMARK   27  A    between atoms: _64  and  _66
REMARK   28  A    between atoms: _66  and  _67
REMARK   29  A    between atoms: _66  and  _69
REMARK   30  A    between atoms: _69  and  _70
REMARK   31  A    between atoms: _70  and  _71
REMARK   32  A    between atoms: _71  and  _72
REMARK   33  A    between atoms: _72  and  _73
REMARK   34  A    between atoms: _77  and  _79
REMARK   35  A    between atoms: _79  and  _80
REMARK   36  A    between atoms: _79  and  _82
REMARK   37  A    between atoms: _82  and  _83
REMARK   38  A    between atoms: _88  and  _89
REMARK   39  A    between atoms: _91  and  _93
REMARK   40  A    between atoms: _93  and  _94
REMARK   41  A    between atoms: _93  and  _96
REMARK   42  A    between atoms: _96  and  _97
REMARK   43  A    between atoms: _107  and  _109
REMARK   44  A    between atoms: _109  and  _110
REMARK   45  A    between atoms: _109  and  _112
REMARK   46  A    between atoms: _112  and  _113
REMARK   47  A    between atoms: _113  and  _114
REMARK   48  A    between atoms: _114  and  _115
REMARK   49  A    between atoms: _115  and  _116
REMARK   50  A    between atoms: _120  and  _122
REMARK   51  A    between atoms: _122  and  _123
REMARK   52  A    between atoms: _122  and  _125
REMARK   53  A    between atoms: _125  and  _126
REMARK   54  A    between atoms: _126  and  _127
REMARK   55  A    between atoms: _132  and  _134
REMARK   56  A    between atoms: _134  and  _135
REMARK   57  A    between atoms: _134  and  _137
REMARK   58  A    between atoms: _137  and  _138
REMARK   59  A    between atoms: _140  and  _142
REMARK   60  A    between atoms: _142  and  _143
REMARK   61  A    between atoms: _142  and  _145
REMARK   62  A    between atoms: _145  and  _146
REMARK   63  A    between atoms: _151  and  _153
REMARK   64  A    between atoms: _153  and  _154
REMARK   65  A    between atoms: _153  and  _156
REMARK   66  A    between atoms: _156  and  _157
REMARK   67  A    between atoms: _162  and  _164
REMARK   68  A    between atoms: _164  and  _165
REMARK   69  A    between atoms: _164  and  _167
REMARK   70  A    between atoms: _167  and  _168
REMARK   71  A    between atoms: _171  and  _173
REMARK   72  A    between atoms: _173  and  _174
REMARK   73  A    between atoms: _173  and  _176
REMARK   74  A    between atoms: _176  and  _177
REMARK   75  A    between atoms: _177  and  _178
REMARK   76  A    between atoms: _178  and  _179
REMARK   77  A    between atoms: _188  and  _190
REMARK   78  A    between atoms: _190  and  _191
REMARK   79  A    between atoms: _190  and  _193
REMARK   80  A    between atoms: _193  and  _194
REMARK   81  A    between atoms: _199  and  _200
REMARK   82  A    between atoms: _202  and  _204
REMARK   83  A    between atoms: _204  and  _205
REMARK   84  A    between atoms: _204  and  _207
REMARK   85  A    between atoms: _207  and  _208
REMARK   86  A    between atoms: _210  and  _212
REMARK   87  A    between atoms: _212  and  _213
REMARK   88  A    between atoms: _212  and  _215
REMARK   89  A    between atoms: _215  and  _216
REMARK   90  A    between atoms: _226  and  _228
REMARK   91  A    between atoms: _228  and  _229
REMARK   92  A    between atoms: _228  and  _231
REMARK   93  A    between atoms: _231  and  _232
REMARK   94  A    between atoms: _238  and  _240
REMARK   95  A    between atoms: _240  and  _241
REMARK   96  A    between atoms: _240  and  _243
REMARK   97  A    between atoms: _243  and  _244
REMARK   98  A    between atoms: _244  and  _245
REMARK   99  A    between atoms: _245  and  _246
REMARK  100  A    between atoms: _255  and  _257
REMARK  101  A    between atoms: _257  and  _258
REMARK  102  A    between atoms: _257  and  _260
REMARK  103  A    between atoms: _260  and  _261
REMARK  104  A    between atoms: _266  and  _268
REMARK  105  A    between atoms: _268  and  _269
REMARK  106  A    between atoms: _272  and  _274
REMARK  107  A    between atoms: _274  and  _275
REMARK  108  A    between atoms: _274  and  _277
REMARK  109  A    between atoms: _277  and  _278
REMARK  110  A    between atoms: _278  and  _279
REMARK  111  A    between atoms: _279  and  _280
REMARK  112  A    between atoms: _280  and  _281
REMARK  113  A    between atoms: _285  and  _287
REMARK  114  A    between atoms: _287  and  _288
REMARK  115  A    between atoms: _287  and  _290
REMARK  116  A    between atoms: _290  and  _291
REMARK  117  A    between atoms: _294  and  _296
REMARK  118  A    between atoms: _296  and  _297
REMARK  119  A    between atoms: _296  and  _299
REMARK  120  A    between atoms: _299  and  _300
REMARK  121  A    between atoms: _300  and  _301
REMARK  122  A    between atoms: _304  and  _306
REMARK  123  A    between atoms: _306  and  _307
REMARK  124  A    between atoms: _306  and  _309
REMARK  125  A    between atoms: _309  and  _310
REMARK  126  A    between atoms: _313  and  _315
REMARK  127  A    between atoms: _315  and  _316
REMARK  128  A    between atoms: _315  and  _318
REMARK  129  A    between atoms: _318  and  _319
REMARK  130  A    between atoms: _322  and  _324
REMARK  131  A    between atoms: _324  and  _325
REMARK  132  A    between atoms: _324  and  _327
REMARK  133  A    between atoms: _327  and  _328
REMARK  134  A    between atoms: _331  and  _332
REMARK  135  A    between atoms: _337  and  _339
REMARK  136  A    between atoms: _339  and  _340
REMARK  137  A    between atoms: _339  and  _342
REMARK  138  A    between atoms: _342  and  _343
REMARK  139  A    between atoms: _345  and  _347
REMARK  140  A    between atoms: _347  and  _348
REMARK  141  A    between atoms: _347  and  _350
REMARK  142  A    between atoms: _350  and  _351
REMARK  143  A    between atoms: _356  and  _357
REMARK  144  A    between atoms: _359  and  _361
REMARK  145  A    between atoms: _361  and  _362
REMARK  146  A    between atoms: _361  and  _364
REMARK  147  A    between atoms: _364  and  _365
REMARK  148  A    between atoms: _370  and  _371
REMARK  149  A    between atoms: _373  and  _375
REMARK  150  A    between atoms: _375  and  _376
REMARK  151  A    between atoms: _375  and  _378
REMARK  152  A    between atoms: _378  and  _379
REMARK  153  A    between atoms: _384  and  _385
REMARK  154  A    between atoms: _387  and  _389
REMARK  155  A    between atoms: _389  and  _390
REMARK  156  A    between atoms: _389  and  _392
REMARK  157  A    between atoms: _392  and  _393
REMARK  158  A    between atoms: _393  and  _394
REMARK  159  A    between atoms: _397  and  _399
REMARK  160  A    between atoms: _399  and  _400
REMARK  161  A    between atoms: _402  and  _404
REMARK  162  A    between atoms: _404  and  _405
REMARK  163  A    between atoms: _404  and  _407
REMARK  164  A    between atoms: _407  and  _408
REMARK                            x       y       z     vdW  Elec       q    Type
REMARK                         _______ _______ _______ _____ _____    ______ ____
ROOT
ATOM      1  CA  ARG A   1      -5.654   0.849   6.404  0.00  0.00    +0.145 C 
ENDROOT
BRANCH   1   2
ATOM      2  C   ARG A   1      -4.226   1.228   6.788  0.00  0.00    +0.238 C 
ATOM      3  O   ARG A   1      -3.926   1.439   7.963  0.00  0.00    -0.274 OA
ATOM      4  N   ASN A   2      -3.348   1.299   5.790  0.00  0.00    -0.298 N 
ATOM      5  H   ASN A   2      -3.662   1.100   4.819  0.00  0.00    +0.150 HD
BRANCH   4   6
ATOM      6  CA  ASN A   2      -1.953   1.651   6.035  0.00  0.00    +0.146 C 
BRANCH   6   7
ATOM      7  C   ASN A   2      -1.757   3.153   6.238  0.00  0.00    +0.227 C 
ATOM      8  O   ASN A   2      -2.702   3.936   6.135  0.00  0.00    -0.286 OA
ENDBRANCH   6   7
BRANCH   6   9
ATOM      9  CB  ASN A   2      -1.048   1.138   4.906  0.00  0.00    +0.112 C 
BRANCH   9  10
ATOM     10  CG  ASN A   2      -1.405   1.723   3.555  0.00  0.00    +0.222 C 
ATOM     11  OD1 ASN A   2      -2.304   2.555   3.444  0.00  0.00    -0.275 OA
ATOM     12  ND2 ASN A   2      -0.703   1.283   2.514  0.00  0.00    -0.329 N 
ATOM     13 HD21 ASN A   2       0.049   0.578   2.654  0.00  0.00    +0.145 HD
ATOM     14 HD22 ASN A   2      -0.906   1.644   1.560  0.00  0.00    +0.145 HD
ENDBRANCH   9  10
ENDBRANCH   6   9
ENDBRANCH   4   6
ENDBRANCH   1   2
BRANCH   1  15
ATOM     15  N   ARG A   1      -6.495   0.644   7.578  0.00  0.00    -0.238 NA
ATOM     16  H   ARG A   1      -7.172   1.384   7.854  0.00  0.00    +0.142 HD
ENDBRANCH   1  15
BRANCH   1  17
ATOM     17  CB  ARG A   1      -6.269   1.904   5.478  0.00  0.00    +0.030 C 
BRANCH  17  18
ATOM     18  CG  ARG A   1      -7.649   1.521   4.946  0.00  0.00    +0.045 C 
BRANCH  18  19
ATOM     19  CD  ARG A   1      -8.078   2.426   3.803  0.00  0.00    +0.174 C 
BRANCH  19  20
ATOM     20  NE  ARG A   1      -9.295   1.956   3.149  0.00  0.00    -0.265 N 
ATOM     21  CZ  ARG A   1     -10.529   2.216   3.573  0.00  0.00    +0.342 C 
ATOM     22  NH2 ARG A   1     -10.727   2.937   4.671  0.00  0.00    -0.292 N 
ATOM     23 HH21 ARG A   1      -9.914   3.303   5.206  0.00  0.00    +0.255 HD
ATOM     24 HH22 ARG A   1     -11.695   3.135   4.995  0.00  0.00    +0.255 HD
ATOM     25  NH1 ARG A   1     -11.568   1.743   2.898  0.00  0.00    -0.292 N 
ATOM     26 HH11 ARG A   1     -12.535   1.943   3.225  0.00  0.00    +0.255 HD
ATOM     27 HH12 ARG A   1     -11.416   1.172   2.042  0.00  0.00    +0.255 HD
ATOM     28  HE  ARG A   1      -9.190   1.377   2.291  0.00  0.00    +0.259 HD
ENDBRANCH  19  20
ENDBRANCH  18  19
ENDBRANCH  17  18
ENDBRANCH   1  17
TORSDOF 10
REMARK  Name = ../refined-set-2016/3ijh/3ijh_pocket.pdb
REMARK  164 active torsions:
REMARK  status: ('A' for Active; 'I' for Inactive)
REMARK    1  A    between atoms: _1  and  _3
REMARK    2  A    between atoms: _3  and  _4
REMARK    3  A    between atoms: _3  and  _6
REMARK    4  A    between atoms: _6  and  _7
REMARK    5  A    between atoms: _10  and  _12
REMARK    6  A    between atoms: _12  and  _13
REMARK    7  A    between atoms: _12  and  _15
REMARK    8  A    between atoms: _15  and  _16
REMARK    9  A    between atoms: _19  and  _21
REMARK   10  A    between atoms: _21  and  _22
REMARK   11  A    between atoms: _21  and  _24
REMARK   12  A    between atoms: _24  and  _25
REMARK   13  A    between atoms: _30  and  _32
REMARK   14  A    between atoms: _32  and  _33
REMARK   15  A    between atoms: _32  and  _35
REMARK   16  A    between atoms: _35  and  _36
REMARK   17  A    between atoms: _38  and  _40
REMARK   18  A    between atoms: _40  and  _41
REMARK   19  A    between atoms: _40  and  _43
REMARK   20  A    between atoms: _43  and  _44
REMARK   21  A    between atoms: _44  and  _45
REMARK   22  A    between atoms: _45  and  _46
REMARK   23  A    between atoms: _55  and  _57
REMARK   24  A    between atoms: _57  and  _58
REMARK   25  A    between atoms: _57  and  _60
REMARK   26  A    between atoms: _60  and  _61
REMARK   27  A    between atoms: _64  and  _66
REMARK   28  A    between atoms: _66  and  _67
REMARK   29  A    between atoms: _66  and  _69
REMARK   30  A    between atoms: _69  and  _70
REMARK   31  A    between atoms: _70  and  _71
REMARK   32  A    between atoms: _71  and  _72
REMARK   33  A    between atoms: _72  and  _73
REMARK   34  A    between atoms: _77  and  _79
REMARK   35  A    between atoms: _79  and  _80
REMARK   36  A    between atoms: _79  and  _82
REMARK   37  A    between atoms: _82  and  _83
REMARK   38  A    between atoms: _88  and  _89
REMARK   39  A    between atoms: _91  and  _93
REMARK   40  A    between atoms: _93  and  _94
REMARK   41  A    between atoms: _93  and  _96
REMARK   42  A    between atoms: _96  and  _97
REMARK   43  A    between atoms: _107  and  _109
REMARK   44  A    between atoms: _109  and  _110
REMARK   45  A    between atoms: _109  and  _112
REMARK   46  A    between atoms: _112  and  _113
REMARK   47  A    between atoms: _113  and  _114
REMARK   48  A    between atoms: _114  and  _115
REMARK   49  A    between atoms: _115  and  _116
REMARK   50  A    between atoms: _120  and  _122
REMARK   51  A    between atoms: _122  and  _123
REMARK   52  A    between atoms: _122  and  _125
REMARK   53  A    between atoms: _125  and  _126
REMARK   54  A    between atoms: _126  and  _127
REMARK   55  A    between atoms: _132  and  _134
REMARK   56  A    between atoms: _134  and  _135
REMARK   57  A    between atoms: _134  and  _137
REMARK   58  A    between atoms: _137  and  _138
REMARK   59  A    between atoms: _140  and  _142
REMARK   60  A    between atoms: _142  and  _143
REMARK   61  A    between atoms: _142  and  _145
REMARK   62  A    between atoms: _145  and  _146
REMARK   63  A    between atoms: _151  and  _153
REMARK   64  A    between atoms: _153  and  _154
REMARK   65  A    between atoms: _153  and  _156
REMARK   66  A    between atoms: _156  and  _157
REMARK   67  A    between atoms: _162  and  _164
REMARK   68  A    between atoms: _164  and  _165
REMARK   69  A    between atoms: _164  and  _167
REMARK   70  A    between atoms: _167  and  _168
REMARK   71  A    between atoms: _171  and  _173
REMARK   72  A    between atoms: _173  and  _174
REMARK   73  A    between atoms: _173  and  _176
REMARK   74  A    between atoms: _176  and  _177
REMARK   75  A    between atoms: _177  and  _178
REMARK   76  A    between atoms: _178  and  _179
REMARK   77  A    between atoms: _188  and  _190
REMARK   78  A    between atoms: _190  and  _191
REMARK   79  A    between atoms: _190  and  _193
REMARK   80  A    between atoms: _193  and  _194
REMARK   81  A    between atoms: _199  and  _200
REMARK   82  A    between atoms: _202  and  _204
REMARK   83  A    between atoms: _204  and  _205
REMARK   84  A    between atoms: _204  and  _207
REMARK   85  A    between atoms: _207  and  _208
REMARK   86  A    between atoms: _210  and  _212
REMARK   87  A    between atoms: _212  and  _213
REMARK   88  A    between atoms: _212  and  _215
REMARK   89  A    between atoms: _215  and  _216
REMARK   90  A    between atoms: _226  and  _228
REMARK   91  A    between atoms: _228  and  _229
REMARK   92  A    between atoms: _228  and  _231
REMARK   93  A    between atoms: _231  and  _232
REMARK   94  A    between atoms: _238  and  _240
REMARK   95  A    between atoms: _240  and  _241
REMARK   96  A    between atoms: _240  and  _243
REMARK   97  A    between atoms: _243  and  _244
REMARK   98  A    between atoms: _244  and  _245
REMARK   99  A    between atoms: _245  and  _246
REMARK  100  A    between atoms: _255  and  _257
REMARK  101  A    between atoms: _257  and  _258
REMARK  102  A    between atoms: _257  and  _260
REMARK  103  A    between atoms: _260  and  _261
REMARK  104  A    between atoms: _266  and  _268
REMARK  105  A    between atoms: _268  and  _269
REMARK  106  A    between atoms: _272  and  _274
REMARK  107  A    between atoms: _274  and  _275
REMARK  108  A    between atoms: _274  and  _277
REMARK  109  A    between atoms: _277  and  _278
REMARK  110  A    between atoms: _278  and  _279
REMARK  111  A    between atoms: _279  and  _280
REMARK  112  A    between atoms: _280  and  _281
REMARK  113  A    between atoms: _285  and  _287
REMARK  114  A    between atoms: _287  and  _288
REMARK  115  A    between atoms: _287  and  _290
REMARK  116  A    between atoms: _290  and  _291
REMARK  117  A    between atoms: _294  and  _296
REMARK  118  A    between atoms: _296  and  _297
REMARK  119  A    between atoms: _296  and  _299
REMARK  120  A    between atoms: _299  and  _300
REMARK  121  A    between atoms: _300  and  _301
REMARK  122  A    between atoms: _304  and  _306
REMARK  123  A    between atoms: _306  and  _307
REMARK  124  A    between atoms: _306  and  _309
REMARK  125  A    between atoms: _309  and  _310
REMARK  126  A    between atoms: _313  and  _315
REMARK  127  A    between atoms: _315  and  _316
REMARK  128  A    between atoms: _315  and  _318
REMARK  129  A    between atoms: _318  and  _319
REMARK  130  A    between atoms: _322  and  _324
REMARK  131  A    between atoms: _324  and  _325
REMARK  132  A    between atoms: _324  and  _327
REMARK  133  A    between atoms: _327  and  _328
REMARK  134  A    between atoms: _331  and  _332
REMARK  135  A    between atoms: _337  and  _339
REMARK  136  A    between atoms: _339  and  _340
REMARK  137  A    between atoms: _339  and  _342
REMARK  138  A    between atoms: _342  and  _343
REMARK  139  A    between atoms: _345  and  _347
REMARK  140  A    between atoms: _347  and  _348
REMARK  141  A    between atoms: _347  and  _350
REMARK  142  A    between atoms: _350  and  _351
REMARK  143  A    between atoms: _356  and  _357
REMARK  144  A    between atoms: _359  and  _361
REMARK  145  A    between atoms: _361  and  _362
REMARK  146  A    between atoms: _361  and  _364
REMARK  147  A    between atoms: _364  and  _365
REMARK  148  A    between atoms: _370  and  _371
REMARK  149  A    between atoms: _373  and  _375
REMARK  150  A    between atoms: _375  and  _376
REMARK  151  A    between atoms: _375  and  _378
REMARK  152  A    between atoms: _378  and  _379
REMARK  153  A    between atoms: _384  and  _385
REMARK  154  A    between atoms: _387  and  _389
REMARK  155  A    between atoms: _389  and  _390
REMARK  156  A    between atoms: _389  and  _392
REMARK  157  A    between atoms: _392  and  _393
REMARK  158  A    between atoms: _393  and  _394
REMARK  159  A    between atoms: _397  and  _399
REMARK  160  A    between atoms: _399  and  _400
REMARK  161  A    between atoms: _402  and  _404
REMARK  162  A    between atoms: _404  and  _405
REMARK  163  A    between atoms: _404  and  _407
REMARK  164  A    between atoms: _407  and  _408
REMARK                            x       y       z     vdW  Elec       q    Type
REMARK                         _______ _______ _______ _____ _____    ______ ____
ROOT
ATOM      1  CA  LYS A   2      -4.250   5.838   3.449  0.00  0.00    +0.137 C 
ENDROOT
BRANCH   1   3
ATOM      2  C   ALA A   1      -1.927   6.437   2.980  0.00  0.00    +0.238 C 
ATOM      3  N   LYS A   2      -2.806   5.609   3.543  0.00  0.00    -0.298 N 
ATOM      4  H   LYS A   2      -2.458   4.778   4.063  0.00  0.00    +0.150 HD
ATOM      5  O   ALA A   1      -2.257   7.468   2.397  0.00  0.00    -0.274 OA
BRANCH   2   6
ATOM      6  CA  ALA A   1      -0.449   6.060   3.110  0.00  0.00    +0.145 C 
ATOM      7  CB  ALA A   1       0.030   5.309   1.870  0.00  0.00    +0.028 C 
BRANCH   6   8
ATOM      8  N   ALA A   1      -0.206   5.288   4.321  0.00  0.00    -0.238 NA
ATOM      9  H   ALA A   1       0.206   4.336   4.254  0.00  0.00    +0.142 HD
ENDBRANCH   6   8
ENDBRANCH   2   6
ENDBRANCH   1   3
BRANCH   1  10
ATOM     10  C   LYS A   2      -4.835   6.517   4.688  0.00  0.00    +0.227 C 
ATOM     11  O   LYS A   2      -6.043   6.756   4.761  0.00  0.00    -0.286 OA
ENDBRANCH   1  10
BRANCH   1  12
ATOM     12  CB  LYS A   2      -4.988   4.524   3.193  0.00  0.00    +0.028 C 
BRANCH  12  13
ATOM     13  CG  LYS A   2      -4.567   3.803   1.929  0.00  0.00    -0.000 C 
BRANCH  13  14
ATOM     14  CD  LYS A   2      -5.039   4.526   0.689  0.00  0.00    -0.024 C 
BRANCH  14  15
ATOM     15  CE  LYS A   2      -4.865   3.639  -0.538  0.00  0.00    -0.086 C 
BRANCH  15  16
ATOM     16  NZ  LYS A   2      -5.267   4.324  -1.801  0.00  0.00    +0.380 N 
ATOM     17  HZ1 LYS A   2      -6.269   4.597  -1.742  0.00  0.00    -0.089 HD
ATOM     18  HZ2 LYS A   2      -4.682   5.174  -1.934  0.00  0.00    -0.089 HD
ATOM     19  HZ3 LYS A   2      -5.129   3.677  -2.604  0.00  0.00    -0.089 HD
ENDBRANCH  15  16
ENDBRANCH  14  15
ENDBRANCH  13  14
ENDBRANCH  12  13
ENDBRANCH   1  12
TORSDOF 9
REMARK  Name = ../refined-set-2016/3ijh/3ijh_pocket.pdb
REMARK  164 active torsions:
REMARK  status: ('A' for Active; 'I' for Inactive)
REMARK    1  A    between atoms: _1  and  _3
REMARK    2  A    between atoms: _3  and  _4
REMARK    3  A    between atoms: _3  and  _6
REMARK    4  A    between atoms: _6  and  _7
REMARK    5  A    between atoms: _10  and  _12
REMARK    6  A    between atoms: _12  and  _13
REMARK    7  A    between atoms: _12  and  _15
REMARK    8  A    between atoms: _15  and  _16
REMARK    9  A    between atoms: _19  and  _21
REMARK   10  A    between atoms: _21  and  _22
REMARK   11  A    between atoms: _21  and  _24
REMARK   12  A    between atoms: _24  and  _25
REMARK   13  A    between atoms: _30  and  _32
REMARK   14  A    between atoms: _32  and  _33
REMARK   15  A    between atoms: _32  and  _35
REMARK   16  A    between atoms: _35  and  _36
REMARK   17  A    between atoms: _38  and  _40
REMARK   18  A    between atoms: _40  and  _41
REMARK   19  A    between atoms: _40  and  _43
REMARK   20  A    between atoms: _43  and  _44
REMARK   21  A    between atoms: _44  and  _45
REMARK   22  A    between atoms: _45  and  _46
REMARK   23  A    between atoms: _55  and  _57
REMARK   24  A    between atoms: _57  and  _58
REMARK   25  A    between atoms: _57  and  _60
REMARK   26  A    between atoms: _60  and  _61
REMARK   27  A    between atoms: _64  and  _66
REMARK   28  A    between atoms: _66  and  _67
REMARK   29  A    between atoms: _66  and  _69
REMARK   30  A    between atoms: _69  and  _70
REMARK   31  A    between atoms: _70  and  _71
REMARK   32  A    between atoms: _71  and  _72
REMARK   33  A    between atoms: _72  and  _73
REMARK   34  A    between atoms: _77  and  _79
REMARK   35  A    between atoms: _79  and  _80
REMARK   36  A    between atoms: _79  and  _82
REMARK   37  A    between atoms: _82  and  _83
REMARK   38  A    between atoms: _88  and  _89
REMARK   39  A    between atoms: _91  and  _93
REMARK   40  A    between atoms: _93  and  _94
REMARK   41  A    between atoms: _93  and  _96
REMARK   42  A    between atoms: _96  and  _97
REMARK   43  A    between atoms: _107  and  _109
REMARK   44  A    between atoms: _109  and  _110
REMARK   45  A    between atoms: _109  and  _112
REMARK   46  A    between atoms: _112  and  _113
REMARK   47  A    between atoms: _113  and  _114
REMARK   48  A    between atoms: _114  and  _115
REMARK   49  A    between atoms: _115  and  _116
REMARK   50  A    between atoms: _120  and  _122
REMARK   51  A    between atoms: _122  and  _123
REMARK   52  A    between atoms: _122  and  _125
REMARK   53  A    between atoms: _125  and  _126
REMARK   54  A    between atoms: _126  and  _127
REMARK   55  A    between atoms: _132  and  _134
REMARK   56  A    between atoms: _134  and  _135
REMARK   57  A    between atoms: _134  and  _137
REMARK   58  A    between atoms: _137  and  _138
REMARK   59  A    between atoms: _140  and  _142
REMARK   60  A    between atoms: _142  and  _143
REMARK   61  A    between atoms: _142  and  _145
REMARK   62  A    between atoms: _145  and  _146
REMARK   63  A    between atoms: _151  and  _153
REMARK   64  A    between atoms: _153  and  _154
REMARK   65  A    between atoms: _153  and  _156
REMARK   66  A    between atoms: _156  and  _157
REMARK   67  A    between atoms: _162  and  _164
REMARK   68  A    between atoms: _164  and  _165
REMARK   69  A    between atoms: _164  and  _167
REMARK   70  A    between atoms: _167  and  _168
REMARK   71  A    between atoms: _171  and  _173
REMARK   72  A    between atoms: _173  and  _174
REMARK   73  A    between atoms: _173  and  _176
REMARK   74  A    between atoms: _176  and  _177
REMARK   75  A    between atoms: _177  and  _178
REMARK   76  A    between atoms: _178  and  _179
REMARK   77  A    between atoms: _188  and  _190
REMARK   78  A    between atoms: _190  and  _191
REMARK   79  A    between atoms: _190  and  _193
REMARK   80  A    between atoms: _193  and  _194
REMARK   81  A    between atoms: _199  and  _200
REMARK   82  A    between atoms: _202  and  _204
REMARK   83  A    between atoms: _204  and  _205
REMARK   84  A    between atoms: _204  and  _207
REMARK   85  A    between atoms: _207  and  _208
REMARK   86  A    between atoms: _210  and  _212
REMARK   87  A    between atoms: _212  and  _213
REMARK   88  A    between atoms: _212  and  _215
REMARK   89  A    between atoms: _215  and  _216
REMARK   90  A    between atoms: _226  and  _228
REMARK   91  A    between atoms: _228  and  _229
REMARK   92  A    between atoms: _228  and  _231
REMARK   93  A    between atoms: _231  and  _232
REMARK   94  A    between atoms: _238  and  _240
REMARK   95  A    between atoms: _240  and  _241
REMARK   96  A    between atoms: _240  and  _243
REMARK   97  A    between atoms: _243  and  _244
REMARK   98  A    between atoms: _244  and  _245
REMARK   99  A    between atoms: _245  and  _246
REMARK  100  A    between atoms: _255  and  _257
REMARK  101  A    between atoms: _257  and  _258
REMARK  102  A    between atoms: _257  and  _260
REMARK  103  A    between atoms: _260  and  _261
REMARK  104  A    between atoms: _266  and  _268
REMARK  105  A    between atoms: _268  and  _269
REMARK  106  A    between atoms: _272  and  _274
REMARK  107  A    between atoms: _274  and  _275
REMARK  108  A    between atoms: _274  and  _277
REMARK  109  A    between atoms: _277  and  _278
REMARK  110  A    between atoms: _278  and  _279
REMARK  111  A    between atoms: _279  and  _280
REMARK  112  A    between atoms: _280  and  _281
REMARK  113  A    between atoms: _285  and  _287
REMARK  114  A    between atoms: _287  and  _288
REMARK  115  A    between atoms: _287  and  _290
REMARK  116  A    between atoms: _290  and  _291
REMARK  117  A    between atoms: _294  and  _296
REMARK  118  A    between atoms: _296  and  _297
REMARK  119  A    between atoms: _296  and  _299
REMARK  120  A    between atoms: _299  and  _300
REMARK  121  A    between atoms: _300  and  _301
REMARK  122  A    between atoms: _304  and  _306
REMARK  123  A    between atoms: _306  and  _307
REMARK  124  A    between atoms: _306  and  _309
REMARK  125  A    between atoms: _309  and  _310
REMARK  126  A    between atoms: _313  and  _315
REMARK  127  A    between atoms: _315  and  _316
REMARK  128  A    between atoms: _315  and  _318
REMARK  129  A    between atoms: _318  and  _319
REMARK  130  A    between atoms: _322  and  _324
REMARK  131  A    between atoms: _324  and  _325
REMARK  132  A    between atoms: _324  and  _327
REMARK  133  A    between atoms: _327  and  _328
REMARK  134  A    between atoms: _331  and  _332
REMARK  135  A    between atoms: _337  and  _339
REMARK  136  A    between atoms: _339  and  _340
REMARK  137  A    between atoms: _339  and  _342
REMARK  138  A    between atoms: _342  and  _343
REMARK  139  A    between atoms: _345  and  _347
REMARK  140  A    between atoms: _347  and  _348
REMARK  141  A    between atoms: _347  and  _350
REMARK  142  A    between atoms: _350  and  _351
REMARK  143  A    between atoms: _356  and  _357
REMARK  144  A    between atoms: _359  and  _361
REMARK  145  A    between atoms: _361  and  _362
REMARK  146  A    between atoms: _361  and  _364
REMARK  147  A    between atoms: _364  and  _365
REMARK  148  A    between atoms: _370  and  _371
REMARK  149  A    between atoms: _373  and  _375
REMARK  150  A    between atoms: _375  and  _376
REMARK  151  A    between atoms: _375  and  _378
REMARK  152  A    between atoms: _378  and  _379
REMARK  153  A    between atoms: _384  and  _385
REMARK  154  A    between atoms: _387  and  _389
REMARK  155  A    between atoms: _389  and  _390
REMARK  156  A    between atoms: _389  and  _392
REMARK  157  A    between atoms: _392  and  _393
REMARK  158  A    between atoms: _393  and  _394
REMARK  159  A    between atoms: _397  and  _399
REMARK  160  A    between atoms: _399  and  _400
REMARK  161  A    between atoms: _402  and  _404
REMARK  162  A    between atoms: _404  and  _405
REMARK  163  A    between atoms: _404  and  _407
REMARK  164  A    between atoms: _407  and  _408
REMARK                            x       y       z     vdW  Elec       q    Type
REMARK                         _______ _______ _______ _____ _____    ______ ____
ROOT
ATOM      1  CA  THR A   1      -8.748   4.664   8.356  0.00  0.00    +0.160 C 
ENDROOT
BRANCH   1   2
ATOM      2  N   THR A   1      -7.298   4.644   8.209  0.00  0.00    -0.237 NA
ATOM      3  H   THR A   1      -6.877   4.747   7.264  0.00  0.00    +0.142 HD
ENDBRANCH   1   2
BRANCH   1   4
ATOM      4  C   THR A   1      -9.308   3.260   8.589  0.00  0.00    +0.227 C 
ATOM      5  O   THR A   1      -8.751   2.266   8.112  0.00  0.00    -0.287 OA
ENDBRANCH   1   4
BRANCH   1   6
ATOM      6  CB  THR A   1      -9.429   5.292   7.134  0.00  0.00    +0.134 C 
ATOM      7  CG2 THR A   1      -9.188   6.802   7.101  0.00  0.00    +0.034 C 
BRANCH   6   8
ATOM      8  OG1 THR A   1      -8.905   4.701   5.938  0.00  0.00    -0.383 OA
ATOM      9  HG1 THR A   1      -9.346   5.107   5.150  0.00  0.00    +0.210 HD
ENDBRANCH   6   8
ENDBRANCH   1   6
TORSDOF 4
REMARK  Name = ../refined-set-2016/3ijh/3ijh_pocket.pdb
REMARK  164 active torsions:
REMARK  status: ('A' for Active; 'I' for Inactive)
REMARK    1  A    between atoms: _1  and  _3
REMARK    2  A    between atoms: _3  and  _4
REMARK    3  A    between atoms: _3  and  _6
REMARK    4  A    between atoms: _6  and  _7
REMARK    5  A    between atoms: _10  and  _12
REMARK    6  A    between atoms: _12  and  _13
REMARK    7  A    between atoms: _12  and  _15
REMARK    8  A    between atoms: _15  and  _16
REMARK    9  A    between atoms: _19  and  _21
REMARK   10  A    between atoms: _21  and  _22
REMARK   11  A    between atoms: _21  and  _24
REMARK   12  A    between atoms: _24  and  _25
REMARK   13  A    between atoms: _30  and  _32
REMARK   14  A    between atoms: _32  and  _33
REMARK   15  A    between atoms: _32  and  _35
REMARK   16  A    between atoms: _35  and  _36
REMARK   17  A    between atoms: _38  and  _40
REMARK   18  A    between atoms: _40  and  _41
REMARK   19  A    between atoms: _40  and  _43
REMARK   20  A    between atoms: _43  and  _44
REMARK   21  A    between atoms: _44  and  _45
REMARK   22  A    between atoms: _45  and  _46
REMARK   23  A    between atoms: _55  and  _57
REMARK   24  A    between atoms: _57  and  _58
REMARK   25  A    between atoms: _57  and  _60
REMARK   26  A    between atoms: _60  and  _61
REMARK   27  A    between atoms: _64  and  _66
REMARK   28  A    between atoms: _66  and  _67
REMARK   29  A    between atoms: _66  and  _69
REMARK   30  A    between atoms: _69  and  _70
REMARK   31  A    between atoms: _70  and  _71
REMARK   32  A    between atoms: _71  and  _72
REMARK   33  A    between atoms: _72  and  _73
REMARK   34  A    between atoms: _77  and  _79
REMARK   35  A    between atoms: _79  and  _80
REMARK   36  A    between atoms: _79  and  _82
REMARK   37  A    between atoms: _82  and  _83
REMARK   38  A    between atoms: _88  and  _89
REMARK   39  A    between atoms: _91  and  _93
REMARK   40  A    between atoms: _93  and  _94
REMARK   41  A    between atoms: _93  and  _96
REMARK   42  A    between atoms: _96  and  _97
REMARK   43  A    between atoms: _107  and  _109
REMARK   44  A    between atoms: _109  and  _110
REMARK   45  A    between atoms: _109  and  _112
REMARK   46  A    between atoms: _112  and  _113
REMARK   47  A    between atoms: _113  and  _114
REMARK   48  A    between atoms: _114  and  _115
REMARK   49  A    between atoms: _115  and  _116
REMARK   50  A    between atoms: _120  and  _122
REMARK   51  A    between atoms: _122  and  _123
REMARK   52  A    between atoms: _122  and  _125
REMARK   53  A    between atoms: _125  and  _126
REMARK   54  A    between atoms: _126  and  _127
REMARK   55  A    between atoms: _132  and  _134
REMARK   56  A    between atoms: _134  and  _135
REMARK   57  A    between atoms: _134  and  _137
REMARK   58  A    between atoms: _137  and  _138
REMARK   59  A    between atoms: _140  and  _142
REMARK   60  A    between atoms: _142  and  _143
REMARK   61  A    between atoms: _142  and  _145
REMARK   62  A    between atoms: _145  and  _146
REMARK   63  A    between atoms: _151  and  _153
REMARK   64  A    between atoms: _153  and  _154
REMARK   65  A    between atoms: _153  and  _156
REMARK   66  A    between atoms: _156  and  _157
REMARK   67  A    between atoms: _162  and  _164
REMARK   68  A    between atoms: _164  and  _165
REMARK   69  A    between atoms: _164  and  _167
REMARK   70  A    between atoms: _167  and  _168
REMARK   71  A    between atoms: _171  and  _173
REMARK   72  A    between atoms: _173  and  _174
REMARK   73  A    between atoms: _173  and  _176
REMARK   74  A    between atoms: _176  and  _177
REMARK   75  A    between atoms: _177  and  _178
REMARK   76  A    between atoms: _178  and  _179
REMARK   77  A    between atoms: _188  and  _190
REMARK   78  A    between atoms: _190  and  _191
REMARK   79  A    between atoms: _190  and  _193
REMARK   80  A    between atoms: _193  and  _194
REMARK   81  A    between atoms: _199  and  _200
REMARK   82  A    between atoms: _202  and  _204
REMARK   83  A    between atoms: _204  and  _205
REMARK   84  A    between atoms: _204  and  _207
REMARK   85  A    between atoms: _207  and  _208
REMARK   86  A    between atoms: _210  and  _212
REMARK   87  A    between atoms: _212  and  _213
REMARK   88  A    between atoms: _212  and  _215
REMARK   89  A    between atoms: _215  and  _216
REMARK   90  A    between atoms: _226  and  _228
REMARK   91  A    between atoms: _228  and  _229
REMARK   92  A    between atoms: _228  and  _231
REMARK   93  A    between atoms: _231  and  _232
REMARK   94  A    between atoms: _238  and  _240
REMARK   95  A    between atoms: _240  and  _241
REMARK   96  A    between atoms: _240  and  _243
REMARK   97  A    between atoms: _243  and  _244
REMARK   98  A    between atoms: _244  and  _245
REMARK   99  A    between atoms: _245  and  _246
REMARK  100  A    between atoms: _255  and  _257
REMARK  101  A    between atoms: _257  and  _258
REMARK  102  A    between atoms: _257  and  _260
REMARK  103  A    between atoms: _260  and  _261
REMARK  104  A    between atoms: _266  and  _268
REMARK  105  A    between atoms: _268  and  _269
REMARK  106  A    between atoms: _272  and  _274
REMARK  107  A    between atoms: _274  and  _275
REMARK  108  A    between atoms: _274  and  _277
REMARK  109  A    between atoms: _277  and  _278
REMARK  110  A    between atoms: _278  and  _279
REMARK  111  A    between atoms: _279  and  _280
REMARK  112  A    between atoms: _280  and  _281
REMARK  113  A    between atoms: _285  and  _287
REMARK  114  A    between atoms: _287  and  _288
REMARK  115  A    between atoms: _287  and  _290
REMARK  116  A    between atoms: _290  and  _291
REMARK  117  A    between atoms: _294  and  _296
REMARK  118  A    between atoms: _296  and  _297
REMARK  119  A    between atoms: _296  and  _299
REMARK  120  A    between atoms: _299  and  _300
REMARK  121  A    between atoms: _300  and  _301
REMARK  122  A    between atoms: _304  and  _306
REMARK  123  A    between atoms: _306  and  _307
REMARK  124  A    between atoms: _306  and  _309
REMARK  125  A    between atoms: _309  and  _310
REMARK  126  A    between atoms: _313  and  _315
REMARK  127  A    between atoms: _315  and  _316
REMARK  128  A    between atoms: _315  and  _318
REMARK  129  A    between atoms: _318  and  _319
REMARK  130  A    between atoms: _322  and  _324
REMARK  131  A    between atoms: _324  and  _325
REMARK  132  A    between atoms: _324  and  _327
REMARK  133  A    between atoms: _327  and  _328
REMARK  134  A    between atoms: _331  and  _332
REMARK  135  A    between atoms: _337  and  _339
REMARK  136  A    between atoms: _339  and  _340
REMARK  137  A    between atoms: _339  and  _342
REMARK  138  A    between atoms: _342  and  _343
REMARK  139  A    between atoms: _345  and  _347
REMARK  140  A    between atoms: _347  and  _348
REMARK  141  A    between atoms: _347  and  _350
REMARK  142  A    between atoms: _350  and  _351
REMARK  143  A    between atoms: _356  and  _357
REMARK  144  A    between atoms: _359  and  _361
REMARK  145  A    between atoms: _361  and  _362
REMARK  146  A    between atoms: _361  and  _364
REMARK  147  A    between atoms: _364  and  _365
REMARK  148  A    between atoms: _370  and  _371
REMARK  149  A    between atoms: _373  and  _375
REMARK  150  A    between atoms: _375  and  _376
REMARK  151  A    between atoms: _375  and  _378
REMARK  152  A    between atoms: _378  and  _379
REMARK  153  A    between atoms: _384  and  _385
REMARK  154  A    between atoms: _387  and  _389
REMARK  155  A    between atoms: _389  and  _390
REMARK  156  A    between atoms: _389  and  _392
REMARK  157  A    between atoms: _392  and  _393
REMARK  158  A    between atoms: _393  and  _394
REMARK  159  A    between atoms: _397  and  _399
REMARK  160  A    between atoms: _399  and  _400
REMARK  161  A    between atoms: _402  and  _404
REMARK  162  A    between atoms: _404  and  _405
REMARK  163  A    between atoms: _404  and  _407
REMARK  164  A    between atoms: _407  and  _408
REMARK                            x       y       z     vdW  Elec       q    Type
REMARK                         _______ _______ _______ _____ _____    ______ ____
ROOT
ATOM      1  CA  GLU A   1     -13.868  -0.096   8.109  0.00  0.00    +0.134 C 
ENDROOT
BRANCH   1   2
ATOM      2  N   GLU A   1     -12.592   0.354   8.667  0.00  0.00    -0.239 NA
ATOM      3  H   GLU A   1     -11.872  -0.359   8.901  0.00  0.00    +0.142 HD
ENDBRANCH   1   2
BRANCH   1   4
ATOM      4  C   GLU A   1     -14.286  -1.393   8.804  0.00  0.00    +0.224 C 
ATOM      5  O   GLU A   1     -13.435  -2.150   9.273  0.00  0.00    -0.287 OA
ENDBRANCH   1   4
BRANCH   1   6
ATOM      6  CB  GLU A   1     -13.766  -0.338   6.602  0.00  0.00    +0.037 C 
BRANCH   6   7
ATOM      7  CG  GLU A   1     -13.110   0.773   5.812  0.00  0.00    +0.116 C 
BRANCH   7   8
ATOM      8  CD  GLU A   1     -14.002   1.987   5.640  0.00  0.00    +0.365 C 
ATOM      9  OE2 GLU A   1     -15.187   1.946   6.027  0.00  0.00    -0.246 OA
ATOM     10  OE1 GLU A   1     -13.516   2.997   5.109  0.00  0.00    -0.246 OA
ENDBRANCH   7   8
ENDBRANCH   6   7
ENDBRANCH   1   6
TORSDOF 5
REMARK  Name = ../refined-set-2016/3ijh/3ijh_pocket.pdb
REMARK  164 active torsions:
REMARK  status: ('A' for Active; 'I' for Inactive)
REMARK    1  A    between atoms: _1  and  _3
REMARK    2  A    between atoms: _3  and  _4
REMARK    3  A    between atoms: _3  and  _6
REMARK    4  A    between atoms: _6  and  _7
REMARK    5  A    between atoms: _10  and  _12
REMARK    6  A    between atoms: _12  and  _13
REMARK    7  A    between atoms: _12  and  _15
REMARK    8  A    between atoms: _15  and  _16
REMARK    9  A    between atoms: _19  and  _21
REMARK   10  A    between atoms: _21  and  _22
REMARK   11  A    between atoms: _21  and  _24
REMARK   12  A    between atoms: _24  and  _25
REMARK   13  A    between atoms: _30  and  _32
REMARK   14  A    between atoms: _32  and  _33
REMARK   15  A    between atoms: _32  and  _35
REMARK   16  A    between atoms: _35  and  _36
REMARK   17  A    between atoms: _38  and  _40
REMARK   18  A    between atoms: _40  and  _41
REMARK   19  A    between atoms: _40  and  _43
REMARK   20  A    between atoms: _43  and  _44
REMARK   21  A    between atoms: _44  and  _45
REMARK   22  A    between atoms: _45  and  _46
REMARK   23  A    between atoms: _55  and  _57
REMARK   24  A    between atoms: _57  and  _58
REMARK   25  A    between atoms: _57  and  _60
REMARK   26  A    between atoms: _60  and  _61
REMARK   27  A    between atoms: _64  and  _66
REMARK   28  A    between atoms: _66  and  _67
REMARK   29  A    between atoms: _66  and  _69
REMARK   30  A    between atoms: _69  and  _70
REMARK   31  A    between atoms: _70  and  _71
REMARK   32  A    between atoms: _71  and  _72
REMARK   33  A    between atoms: _72  and  _73
REMARK   34  A    between atoms: _77  and  _79
REMARK   35  A    between atoms: _79  and  _80
REMARK   36  A    between atoms: _79  and  _82
REMARK   37  A    between atoms: _82  and  _83
REMARK   38  A    between atoms: _88  and  _89
REMARK   39  A    between atoms: _91  and  _93
REMARK   40  A    between atoms: _93  and  _94
REMARK   41  A    between atoms: _93  and  _96
REMARK   42  A    between atoms: _96  and  _97
REMARK   43  A    between atoms: _107  and  _109
REMARK   44  A    between atoms: _109  and  _110
REMARK   45  A    between atoms: _109  and  _112
REMARK   46  A    between atoms: _112  and  _113
REMARK   47  A    between atoms: _113  and  _114
REMARK   48  A    between atoms: _114  and  _115
REMARK   49  A    between atoms: _115  and  _116
REMARK   50  A    between atoms: _120  and  _122
REMARK   51  A    between atoms: _122  and  _123
REMARK   52  A    between atoms: _122  and  _125
REMARK   53  A    between atoms: _125  and  _126
REMARK   54  A    between atoms: _126  and  _127
REMARK   55  A    between atoms: _132  and  _134
REMARK   56  A    between atoms: _134  and  _135
REMARK   57  A    between atoms: _134  and  _137
REMARK   58  A    between atoms: _137  and  _138
REMARK   59  A    between atoms: _140  and  _142
REMARK   60  A    between atoms: _142  and  _143
REMARK   61  A    between atoms: _142  and  _145
REMARK   62  A    between atoms: _145  and  _146
REMARK   63  A    between atoms: _151  and  _153
REMARK   64  A    between atoms: _153  and  _154
REMARK   65  A    between atoms: _153  and  _156
REMARK   66  A    between atoms: _156  and  _157
REMARK   67  A    between atoms: _162  and  _164
REMARK   68  A    between atoms: _164  and  _165
REMARK   69  A    between atoms: _164  and  _167
REMARK   70  A    between atoms: _167  and  _168
REMARK   71  A    between atoms: _171  and  _173
REMARK   72  A    between atoms: _173  and  _174
REMARK   73  A    between atoms: _173  and  _176
REMARK   74  A    between atoms: _176  and  _177
REMARK   75  A    between atoms: _177  and  _178
REMARK   76  A    between atoms: _178  and  _179
REMARK   77  A    between atoms: _188  and  _190
REMARK   78  A    between atoms: _190  and  _191
REMARK   79  A    between atoms: _190  and  _193
REMARK   80  A    between atoms: _193  and  _194
REMARK   81  A    between atoms: _199  and  _200
REMARK   82  A    between atoms: _202  and  _204
REMARK   83  A    between atoms: _204  and  _205
REMARK   84  A    between atoms: _204  and  _207
REMARK   85  A    between atoms: _207  and  _208
REMARK   86  A    between atoms: _210  and  _212
REMARK   87  A    between atoms: _212  and  _213
REMARK   88  A    between atoms: _212  and  _215
REMARK   89  A    between atoms: _215  and  _216
REMARK   90  A    between atoms: _226  and  _228
REMARK   91  A    between atoms: _228  and  _229
REMARK   92  A    between atoms: _228  and  _231
REMARK   93  A    between atoms: _231  and  _232
REMARK   94  A    between atoms: _238  and  _240
REMARK   95  A    between atoms: _240  and  _241
REMARK   96  A    between atoms: _240  and  _243
REMARK   97  A    between atoms: _243  and  _244
REMARK   98  A    between atoms: _244  and  _245
REMARK   99  A    between atoms: _245  and  _246
REMARK  100  A    between atoms: _255  and  _257
REMARK  101  A    between atoms: _257  and  _258
REMARK  102  A    between atoms: _257  and  _260
REMARK  103  A    between atoms: _260  and  _261
REMARK  104  A    between atoms: _266  and  _268
REMARK  105  A    between atoms: _268  and  _269
REMARK  106  A    between atoms: _272  and  _274
REMARK  107  A    between atoms: _274  and  _275
REMARK  108  A    between atoms: _274  and  _277
REMARK  109  A    between atoms: _277  and  _278
REMARK  110  A    between atoms: _278  and  _279
REMARK  111  A    between atoms: _279  and  _280
REMARK  112  A    between atoms: _280  and  _281
REMARK  113  A    between atoms: _285  and  _287
REMARK  114  A    between atoms: _287  and  _288
REMARK  115  A    between atoms: _287  and  _290
REMARK  116  A    between atoms: _290  and  _291
REMARK  117  A    between atoms: _294  and  _296
REMARK  118  A    between atoms: _296  and  _297
REMARK  119  A    between atoms: _296  and  _299
REMARK  120  A    between atoms: _299  and  _300
REMARK  121  A    between atoms: _300  and  _301
REMARK  122  A    between atoms: _304  and  _306
REMARK  123  A    between atoms: _306  and  _307
REMARK  124  A    between atoms: _306  and  _309
REMARK  125  A    between atoms: _309  and  _310
REMARK  126  A    between atoms: _313  and  _315
REMARK  127  A    between atoms: _315  and  _316
REMARK  128  A    between atoms: _315  and  _318
REMARK  129  A    between atoms: _318  and  _319
REMARK  130  A    between atoms: _322  and  _324
REMARK  131  A    between atoms: _324  and  _325
REMARK  132  A    between atoms: _324  and  _327
REMARK  133  A    between atoms: _327  and  _328
REMARK  134  A    between atoms: _331  and  _332
REMARK  135  A    between atoms: _337  and  _339
REMARK  136  A    between atoms: _339  and  _340
REMARK  137  A    between atoms: _339  and  _342
REMARK  138  A    between atoms: _342  and  _343
REMARK  139  A    between atoms: _345  and  _347
REMARK  140  A    between atoms: _347  and  _348
REMARK  141  A    between atoms: _347  and  _350
REMARK  142  A    between atoms: _350  and  _351
REMARK  143  A    between atoms: _356  and  _357
REMARK  144  A    between atoms: _359  and  _361
REMARK  145  A    between atoms: _361  and  _362
REMARK  146  A    between atoms: _361  and  _364
REMARK  147  A    between atoms: _364  and  _365
REMARK  148  A    between atoms: _370  and  _371
REMARK  149  A    between atoms: _373  and  _375
REMARK  150  A    between atoms: _375  and  _376
REMARK  151  A    between atoms: _375  and  _378
REMARK  152  A    between atoms: _378  and  _379
REMARK  153  A    between atoms: _384  and  _385
REMARK  154  A    between atoms: _387  and  _389
REMARK  155  A    between atoms: _389  and  _390
REMARK  156  A    between atoms: _389  and  _392
REMARK  157  A    between atoms: _392  and  _393
REMARK  158  A    between atoms: _393  and  _394
REMARK  159  A    between atoms: _397  and  _399
REMARK  160  A    between atoms: _399  and  _400
REMARK  161  A    between atoms: _402  and  _404
REMARK  162  A    between atoms: _404  and  _405
REMARK  163  A    between atoms: _404  and  _407
REMARK  164  A    between atoms: _407  and  _408
REMARK                            x       y       z     vdW  Elec       q    Type
REMARK                         _______ _______ _______ _____ _____    ______ ____
ROOT
ATOM      1  C   SER A   3       0.261  -2.531  -0.477  0.00  0.00    +0.246 C 
ATOM      2  N   PRO A   4      -0.737  -1.706  -0.822  0.00  0.00    -0.272 N 
ATOM      3  CD  PRO A   4      -1.806  -1.264   0.091  0.00  0.00    +0.094 C 
ATOM      4  CG  PRO A   4      -2.770  -0.551  -0.810  0.00  0.00    +0.024 C 
ATOM      5  CB  PRO A   4      -2.410  -0.866  -2.230  0.00  0.00    +0.031 C 
ATOM      6  CA  PRO A   4      -0.919  -1.199  -2.186  0.00  0.00    +0.152 C 
ATOM      7  O   SER A   3       1.168  -2.840  -1.252  0.00  0.00    -0.273 OA
ENDROOT
BRANCH   6   8
ATOM      8  C   PRO A   4      -0.110   0.056  -2.491  0.00  0.00    +0.241 C 
ATOM      9  N   SER A   5       0.612   0.567  -1.502  0.00  0.00    -0.295 N 
ATOM     10  H   SER A   5       0.719   0.032  -0.617  0.00  0.00    +0.150 HD
ATOM     11  O   PRO A   4      -0.141   0.540  -3.624  0.00  0.00    -0.273 OA
BRANCH   9  12
ATOM     12  CA  SER A   5       1.258   1.868  -1.637  0.00  0.00    +0.178 C 
BRANCH  12  13
ATOM     13  C   SER A   5       2.781   1.780  -1.729  0.00  0.00    +0.243 C 
ATOM     14  N   TYR A   6       3.333   0.633  -1.345  0.00  0.00    -0.298 N 
ATOM     15  H   TYR A   6       2.727  -0.117  -0.955  0.00  0.00    +0.150 HD
ATOM     16  O   SER A   5       3.438   2.734  -2.141  0.00  0.00    -0.273 OA
BRANCH  14  17
ATOM     17  CA  TYR A   6       4.769   0.403  -1.459  0.00  0.00    +0.141 C 
BRANCH  17  18
ATOM     18  C   TYR A   6       5.083  -1.083  -1.559  0.00  0.00    +0.227 C 
ATOM     19  O   TYR A   6       4.558  -1.891  -0.791  0.00  0.00    -0.286 OA
ENDBRANCH  17  18
BRANCH  17  20
ATOM     20  CB  TYR A   6       5.517   0.997  -0.263  0.00  0.00    +0.054 C 
BRANCH  20  21
ATOM     21  CG  TYR A   6       7.021   0.844  -0.366  0.00  0.00    -0.020 A 
ATOM     22  CD2 TYR A   6       7.703  -0.107   0.392  0.00  0.00    -0.001 A 
ATOM     23  CE2 TYR A   6       9.080  -0.249   0.293  0.00  0.00    +0.036 A 
ATOM     24  CZ  TYR A   6       9.788   0.567  -0.576  0.00  0.00    +0.134 A 
ATOM     25  CE1 TYR A   6       9.131   1.515  -1.340  0.00  0.00    +0.036 A 
ATOM     26  CD1 TYR A   6       7.759   1.648  -1.232  0.00  0.00    -0.001 A 
BRANCH  24  27
ATOM     27  OH  TYR A   6      11.154   0.440  -0.687  0.00  0.00    -0.506 OA
ATOM     28  HH  TYR A   6      11.493   1.096  -1.347  0.00  0.00    +0.292 HD
ENDBRANCH  24  27
ENDBRANCH  20  21
ENDBRANCH  17  20
ENDBRANCH  14  17
ENDBRANCH  12  13
BRANCH  12  29
ATOM     29  CB  SER A   5       0.842   2.775  -0.480  0.00  0.00    +0.166 C 
BRANCH  29  30
ATOM     30  OG  SER A   5      -0.566   2.729  -0.312  0.00  0.00    -0.380 OA
ATOM     31  H   SER A   5      -0.827   3.319   0.439  0.00  0.00    +0.211 HD
ENDBRANCH  29  30
ENDBRANCH  12  29
ENDBRANCH   9  12
ENDBRANCH   6   8
BRANCH   1  32
ATOM     32  CA  SER A   3       0.214  -3.099   0.936  0.00  0.00    +0.178 C 
BRANCH  32  35
ATOM     33  C   ILE A   2      -1.721  -4.382   1.723  0.00  0.00    +0.241 C 
ATOM     34  O   ILE A   2      -1.935  -3.620   2.668  0.00  0.00    -0.273 OA
ATOM     35  N   SER A   3      -0.656  -4.275   0.930  0.00  0.00    -0.295 N 
ATOM     36  H   SER A   3      -0.435  -5.058   0.282  0.00  0.00    +0.150 HD
BRANCH  33  37
ATOM     37  CA  ILE A   2      -2.679  -5.532   1.401  0.00  0.00    +0.148 C 
BRANCH  37  40
ATOM     38  C   ASP A   1      -2.873  -6.856   3.443  0.00  0.00    +0.239 C 
ATOM     39  O   ASP A   1      -1.666  -7.104   3.442  0.00  0.00    -0.274 OA
ATOM     40  N   ILE A   2      -3.433  -6.050   2.548  0.00  0.00    -0.297 N 
ATOM     41  H   ILE A   2      -4.431  -5.779   2.663  0.00  0.00    +0.150 HD
BRANCH  38  42
ATOM     42  CA  ASP A   1      -3.792  -7.467   4.513  0.00  0.00    +0.156 C 
BRANCH  42  43
ATOM     43  N   ASP A   1      -2.994  -7.745   5.703  0.00  0.00    -0.238 NA
ATOM     44  H   ASP A   1      -2.780  -6.961   6.352  0.00  0.00    +0.142 HD
ENDBRANCH  42  43
BRANCH  42  45
ATOM     45  CB  ASP A   1      -4.941  -6.516   4.884  0.00  0.00    +0.140 C 
BRANCH  45  46
ATOM     46  CG  ASP A   1      -6.138  -6.615   3.941  0.00  0.00    +0.367 C 
ATOM     47  OD2 ASP A   1      -7.283  -6.607   4.442  0.00  0.00    -0.246 OA
ATOM     48  OD1 ASP A   1      -5.947  -6.686   2.709  0.00  0.00    -0.246 OA
ENDBRANCH  45  46
ENDBRANCH  42  45
ENDBRANCH  38  42
ENDBRANCH  37  40
BRANCH  37  49
ATOM     49  CB  ILE A   2      -3.640  -5.073   0.282  0.00  0.00    +0.027 C 
ATOM     50  CG2 ILE A   2      -4.394  -6.273  -0.290  0.00  0.00    +0.002 C 
BRANCH  49  51
ATOM     51  CG1 ILE A   2      -4.617  -4.026   0.828  0.00  0.00    +0.002 C 
ATOM     52  CD1 ILE A   2      -5.294  -3.194  -0.242  0.00  0.00    +0.000 C 
ENDBRANCH  49  51
ENDBRANCH  37  49
ENDBRANCH  33  37
ENDBRANCH  32  35
BRANCH  32  53
ATOM     53  CB  SER A   3       1.625  -3.452   1.417  0.00  0.00    +0.166 C 
BRANCH  53  54
ATOM     54  OG  SER A   3       2.176  -4.528   0.662  0.00  0.00    -0.380 OA
ATOM     55  H   SER A   3       2.224  -4.269  -0.292  0.00  0.00    +0.211 HD
ENDBRANCH  53  54
ENDBRANCH  32  53
ENDBRANCH   1  32
TORSDOF 22
REMARK  Name = ../refined-set-2016/3ijh/3ijh_pocket.pdb
REMARK  164 active torsions:
REMARK  status: ('A' for Active; 'I' for Inactive)
REMARK    1  A    between atoms: _1  and  _3
REMARK    2  A    between atoms: _3  and  _4
REMARK    3  A    between atoms: _3  and  _6
REMARK    4  A    between atoms: _6  and  _7
REMARK    5  A    between atoms: _10  and  _12
REMARK    6  A    between atoms: _12  and  _13
REMARK    7  A    between atoms: _12  and  _15
REMARK    8  A    between atoms: _15  and  _16
REMARK    9  A    between atoms: _19  and  _21
REMARK   10  A    between atoms: _21  and  _22
REMARK   11  A    between atoms: _21  and  _24
REMARK   12  A    between atoms: _24  and  _25
REMARK   13  A    between atoms: _30  and  _32
REMARK   14  A    between atoms: _32  and  _33
REMARK   15  A    between atoms: _32  and  _35
REMARK   16  A    between atoms: _35  and  _36
REMARK   17  A    between atoms: _38  and  _40
REMARK   18  A    between atoms: _40  and  _41
REMARK   19  A    between atoms: _40  and  _43
REMARK   20  A    between atoms: _43  and  _44
REMARK   21  A    between atoms: _44  and  _45
REMARK   22  A    between atoms: _45  and  _46
REMARK   23  A    between atoms: _55  and  _57
REMARK   24  A    between atoms: _57  and  _58
REMARK   25  A    between atoms: _57  and  _60
REMARK   26  A    between atoms: _60  and  _61
REMARK   27  A    between atoms: _64  and  _66
REMARK   28  A    between atoms: _66  and  _67
REMARK   29  A    between atoms: _66  and  _69
REMARK   30  A    between atoms: _69  and  _70
REMARK   31  A    between atoms: _70  and  _71
REMARK   32  A    between atoms: _71  and  _72
REMARK   33  A    between atoms: _72  and  _73
REMARK   34  A    between atoms: _77  and  _79
REMARK   35  A    between atoms: _79  and  _80
REMARK   36  A    between atoms: _79  and  _82
REMARK   37  A    between atoms: _82  and  _83
REMARK   38  A    between atoms: _88  and  _89
REMARK   39  A    between atoms: _91  and  _93
REMARK   40  A    between atoms: _93  and  _94
REMARK   41  A    between atoms: _93  and  _96
REMARK   42  A    between atoms: _96  and  _97
REMARK   43  A    between atoms: _107  and  _109
REMARK   44  A    between atoms: _109  and  _110
REMARK   45  A    between atoms: _109  and  _112
REMARK   46  A    between atoms: _112  and  _113
REMARK   47  A    between atoms: _113  and  _114
REMARK   48  A    between atoms: _114  and  _115
REMARK   49  A    between atoms: _115  and  _116
REMARK   50  A    between atoms: _120  and  _122
REMARK   51  A    between atoms: _122  and  _123
REMARK   52  A    between atoms: _122  and  _125
REMARK   53  A    between atoms: _125  and  _126
REMARK   54  A    between atoms: _126  and  _127
REMARK   55  A    between atoms: _132  and  _134
REMARK   56  A    between atoms: _134  and  _135
REMARK   57  A    between atoms: _134  and  _137
REMARK   58  A    between atoms: _137  and  _138
REMARK   59  A    between atoms: _140  and  _142
REMARK   60  A    between atoms: _142  and  _143
REMARK   61  A    between atoms: _142  and  _145
REMARK   62  A    between atoms: _145  and  _146
REMARK   63  A    between atoms: _151  and  _153
REMARK   64  A    between atoms: _153  and  _154
REMARK   65  A    between atoms: _153  and  _156
REMARK   66  A    between atoms: _156  and  _157
REMARK   67  A    between atoms: _162  and  _164
REMARK   68  A    between atoms: _164  and  _165
REMARK   69  A    between atoms: _164  and  _167
REMARK   70  A    between atoms: _167  and  _168
REMARK   71  A    between atoms: _171  and  _173
REMARK   72  A    between atoms: _173  and  _174
REMARK   73  A    between atoms: _173  and  _176
REMARK   74  A    between atoms: _176  and  _177
REMARK   75  A    between atoms: _177  and  _178
REMARK   76  A    between atoms: _178  and  _179
REMARK   77  A    between atoms: _188  and  _190
REMARK   78  A    between atoms: _190  and  _191
REMARK   79  A    between atoms: _190  and  _193
REMARK   80  A    between atoms: _193  and  _194
REMARK   81  A    between atoms: _199  and  _200
REMARK   82  A    between atoms: _202  and  _204
REMARK   83  A    between atoms: _204  and  _205
REMARK   84  A    between atoms: _204  and  _207
REMARK   85  A    between atoms: _207  and  _208
REMARK   86  A    between atoms: _210  and  _212
REMARK   87  A    between atoms: _212  and  _213
REMARK   88  A    between atoms: _212  and  _215
REMARK   89  A    between atoms: _215  and  _216
REMARK   90  A    between atoms: _226  and  _228
REMARK   91  A    between atoms: _228  and  _229
REMARK   92  A    between atoms: _228  and  _231
REMARK   93  A    between atoms: _231  and  _232
REMARK   94  A    between atoms: _238  and  _240
REMARK   95  A    between atoms: _240  and  _241
REMARK   96  A    between atoms: _240  and  _243
REMARK   97  A    between atoms: _243  and  _244
REMARK   98  A    between atoms: _244  and  _245
REMARK   99  A    between atoms: _245  and  _246
REMARK  100  A    between atoms: _255  and  _257
REMARK  101  A    between atoms: _257  and  _258
REMARK  102  A    between atoms: _257  and  _260
REMARK  103  A    between atoms: _260  and  _261
REMARK  104  A    between atoms: _266  and  _268
REMARK  105  A    between atoms: _268  and  _269
REMARK  106  A    between atoms: _272  and  _274
REMARK  107  A    between atoms: _274  and  _275
REMARK  108  A    between atoms: _274  and  _277
REMARK  109  A    between atoms: _277  and  _278
REMARK  110  A    between atoms: _278  and  _279
REMARK  111  A    between atoms: _279  and  _280
REMARK  112  A    between atoms: _280  and  _281
REMARK  113  A    between atoms: _285  and  _287
REMARK  114  A    between atoms: _287  and  _288
REMARK  115  A    between atoms: _287  and  _290
REMARK  116  A    between atoms: _290  and  _291
REMARK  117  A    between atoms: _294  and  _296
REMARK  118  A    between atoms: _296  and  _297
REMARK  119  A    between atoms: _296  and  _299
REMARK  120  A    between atoms: _299  and  _300
REMARK  121  A    between atoms: _300  and  _301
REMARK  122  A    between atoms: _304  and  _306
REMARK  123  A    between atoms: _306  and  _307
REMARK  124  A    between atoms: _306  and  _309
REMARK  125  A    between atoms: _309  and  _310
REMARK  126  A    between atoms: _313  and  _315
REMARK  127  A    between atoms: _315  and  _316
REMARK  128  A    between atoms: _315  and  _318
REMARK  129  A    between atoms: _318  and  _319
REMARK  130  A    between atoms: _322  and  _324
REMARK  131  A    between atoms: _324  and  _325
REMARK  132  A    between atoms: _324  and  _327
REMARK  133  A    between atoms: _327  and  _328
REMARK  134  A    between atoms: _331  and  _332
REMARK  135  A    between atoms: _337  and  _339
REMARK  136  A    between atoms: _339  and  _340
REMARK  137  A    between atoms: _339  and  _342
REMARK  138  A    between atoms: _342  and  _343
REMARK  139  A    between atoms: _345  and  _347
REMARK  140  A    between atoms: _347  and  _348
REMARK  141  A    between atoms: _347  and  _350
REMARK  142  A    between atoms: _350  and  _351
REMARK  143  A    between atoms: _356  and  _357
REMARK  144  A    between atoms: _359  and  _361
REMARK  145  A    between atoms: _361  and  _362
REMARK  146  A    between atoms: _361  and  _364
REMARK  147  A    between atoms: _364  and  _365
REMARK  148  A    between atoms: _370  and  _371
REMARK  149  A    between atoms: _373  and  _375
REMARK  150  A    between atoms: _375  and  _376
REMARK  151  A    between atoms: _375  and  _378
REMARK  152  A    between atoms: _378  and  _379
REMARK  153  A    between atoms: _384  and  _385
REMARK  154  A    between atoms: _387  and  _389
REMARK  155  A    between atoms: _389  and  _390
REMARK  156  A    between atoms: _389  and  _392
REMARK  157  A    between atoms: _392  and  _393
REMARK  158  A    between atoms: _393  and  _394
REMARK  159  A    between atoms: _397  and  _399
REMARK  160  A    between atoms: _399  and  _400
REMARK  161  A    between atoms: _402  and  _404
REMARK  162  A    between atoms: _404  and  _405
REMARK  163  A    between atoms: _404  and  _407
REMARK  164  A    between atoms: _407  and  _408
REMARK                            x       y       z     vdW  Elec       q    Type
REMARK                         _______ _______ _______ _____ _____    ______ ____
ROOT
ATOM      1  C   TYR A   2      -2.639  -8.648  -3.406  0.00  0.00    +0.241 C 
ATOM      2  O   TYR A   2      -2.440  -8.509  -2.203  0.00  0.00    -0.273 OA
ATOM      3  N   GLU A   3      -3.829  -8.929  -3.920  0.00  0.00    -0.297 N 
ATOM      4  H   GLU A   3      -3.919  -9.065  -4.947  0.00  0.00    +0.150 HD
ENDROOT
BRANCH   3   5
ATOM      5  CA  GLU A   3      -5.014  -9.052  -3.081  0.00  0.00    +0.149 C 
BRANCH   5   6
ATOM      6  C   GLU A   3      -5.095 -10.414  -2.393  0.00  0.00    +0.241 C 
ATOM      7  N   GLY A   4      -4.724 -10.449  -1.116  0.00  0.00    -0.295 N 
ATOM      8  H   GLY A   4      -4.355  -9.584  -0.673  0.00  0.00    +0.150 HD
ATOM      9  O   GLU A   3      -5.475 -11.409  -3.007  0.00  0.00    -0.273 OA
BRANCH   7  10
ATOM     10  CA  GLY A   4      -4.821 -11.663  -0.324  0.00  0.00    +0.176 C 
BRANCH  10  11
ATOM     11  C   GLY A   4      -4.232 -11.486   1.066  0.00  0.00    +0.243 C 
ATOM     12  N   PHE A   5      -4.628 -12.349   1.997  0.00  0.00    -0.298 N 
ATOM     13  H   PHE A   5      -5.374 -13.039   1.773  0.00  0.00    +0.150 HD
ATOM     14  O   GLY A   4      -3.440 -10.570   1.300  0.00  0.00    -0.273 OA
BRANCH  12  15
ATOM     15  CA  PHE A   5      -4.031 -12.342   3.329  0.00  0.00    +0.141 C 
BRANCH  15  16
ATOM     16  C   PHE A   5      -2.862 -13.316   3.336  0.00  0.00    +0.227 C 
ATOM     17  O   PHE A   5      -3.049 -14.525   3.452  0.00  0.00    -0.286 OA
ENDBRANCH  15  16
BRANCH  15  18
ATOM     18  CB  PHE A   5      -5.049 -12.721   4.413  0.00  0.00    +0.054 C 
BRANCH  18  19
ATOM     19  CG  PHE A   5      -6.212 -11.775   4.517  0.00  0.00    -0.020 A 
ATOM     20  CD2 PHE A   5      -7.330 -12.117   5.261  0.00  0.00    -0.004 A 
ATOM     21  CE2 PHE A   5      -8.411 -11.256   5.361  0.00  0.00    -0.000 A 
ATOM     22  CZ  PHE A   5      -8.385 -10.042   4.702  0.00  0.00    -0.000 A 
ATOM     23  CE1 PHE A   5      -7.271  -9.692   3.944  0.00  0.00    -0.000 A 
ATOM     24  CD1 PHE A   5      -6.197 -10.556   3.856  0.00  0.00    -0.004 A 
ENDBRANCH  18  19
ENDBRANCH  15  18
ENDBRANCH  12  15
ENDBRANCH  10  11
ENDBRANCH   7  10
ENDBRANCH   5   6
BRANCH   5  25
ATOM     25  CB  GLU A   3      -6.269  -8.788  -3.913  0.00  0.00    +0.041 C 
BRANCH  25  26
ATOM     26  CG  GLU A   3      -6.498  -7.313  -4.194  0.00  0.00    +0.116 C 
BRANCH  26  27
ATOM     27  CD  GLU A   3      -6.927  -6.546  -2.950  0.00  0.00    +0.365 C 
ATOM     28  OE2 GLU A   3      -7.454  -7.176  -2.003  0.00  0.00    -0.246 OA
ATOM     29  OE1 GLU A   3      -6.745  -5.311  -2.924  0.00  0.00    -0.246 OA
ENDBRANCH  26  27
ENDBRANCH  25  26
ENDBRANCH   5  25
ENDBRANCH   3   5
BRANCH   1  30
ATOM     30  CA  TYR A   2      -1.506  -8.463  -4.399  0.00  0.00    +0.153 C 
BRANCH  30  32
ATOM     31  C   TYR A   1       0.134  -6.695  -4.637  0.00  0.00    +0.239 C 
ATOM     32  N   TYR A   2      -0.522  -7.540  -3.853  0.00  0.00    -0.297 N 
ATOM     33  H   TYR A   2      -0.330  -7.543  -2.831  0.00  0.00    +0.150 HD
ATOM     34  O   TYR A   1       0.161  -6.802  -5.862  0.00  0.00    -0.274 OA
BRANCH  31  35
ATOM     35  CA  TYR A   1       0.891  -5.580  -3.928  0.00  0.00    +0.149 C 
BRANCH  35  36
ATOM     36  N   TYR A   1       2.324  -5.671  -4.168  0.00  0.00    -0.238 NA
ATOM     37  H   TYR A   1       2.686  -5.547  -5.135  0.00  0.00    +0.142 HD
ENDBRANCH  35  36
BRANCH  35  38
ATOM     38  CB  TYR A   1       0.354  -4.215  -4.371  0.00  0.00    +0.053 C 
BRANCH  38  39
ATOM     39  CG  TYR A   1      -1.158  -4.122  -4.416  0.00  0.00    -0.020 A 
ATOM     40  CD2 TYR A   1      -1.933  -4.505  -3.328  0.00  0.00    -0.001 A 
ATOM     41  CE2 TYR A   1      -3.318  -4.419  -3.364  0.00  0.00    +0.036 A 
ATOM     42  CZ  TYR A   1      -3.947  -3.932  -4.500  0.00  0.00    +0.134 A 
ATOM     43  CE1 TYR A   1      -3.198  -3.538  -5.592  0.00  0.00    +0.036 A 
ATOM     44  CD1 TYR A   1      -1.811  -3.633  -5.545  0.00  0.00    -0.001 A 
BRANCH  42  45
ATOM     45  OH  TYR A   1      -5.322  -3.840  -4.542  0.00  0.00    -0.506 OA
ATOM     46  HH  TYR A   1      -5.699  -4.161  -3.685  0.00  0.00    +0.292 HD
ENDBRANCH  42  45
ENDBRANCH  38  39
ENDBRANCH  35  38
ENDBRANCH  31  35
ENDBRANCH  30  32
BRANCH  30  47
ATOM     47  CB  TYR A   2      -0.884  -9.800  -4.814  0.00  0.00    +0.055 C 
BRANCH  47  48
ATOM     48  CG  TYR A   2      -0.231 -10.621  -3.722  0.00  0.00    -0.020 A 
ATOM     49  CD2 TYR A   2      -0.909 -11.671  -3.112  0.00  0.00    -0.001 A 
ATOM     50  CE2 TYR A   2      -0.306 -12.445  -2.131  0.00  0.00    +0.036 A 
ATOM     51  CZ  TYR A   2       1.001 -12.179  -1.761  0.00  0.00    +0.134 A 
ATOM     52  CE1 TYR A   2       1.697 -11.147  -2.363  0.00  0.00    +0.036 A 
ATOM     53  CD1 TYR A   2       1.084 -10.384  -3.340  0.00  0.00    -0.001 A 
BRANCH  51  54
ATOM     54  OH  TYR A   2       1.620 -12.938  -0.788  0.00  0.00    -0.506 OA
ATOM     55  HH  TYR A   2       1.644 -13.885  -1.075  0.00  0.00    +0.292 HD
ENDBRANCH  51  54
ENDBRANCH  47  48
ENDBRANCH  30  47
ENDBRANCH   1  30
TORSDOF 21
REMARK  Name = ../refined-set-2016/3ijh/3ijh_pocket.pdb
REMARK  164 active torsions:
REMARK  status: ('A' for Active; 'I' for Inactive)
REMARK    1  A    between atoms: _1  and  _3
REMARK    2  A    between atoms: _3  and  _4
REMARK    3  A    between atoms: _3  and  _6
REMARK    4  A    between atoms: _6  and  _7
REMARK    5  A    between atoms: _10  and  _12
REMARK    6  A    between atoms: _12  and  _13
REMARK    7  A    between atoms: _12  and  _15
REMARK    8  A    between atoms: _15  and  _16
REMARK    9  A    between atoms: _19  and  _21
REMARK   10  A    between atoms: _21  and  _22
REMARK   11  A    between atoms: _21  and  _24
REMARK   12  A    between atoms: _24  and  _25
REMARK   13  A    between atoms: _30  and  _32
REMARK   14  A    between atoms: _32  and  _33
REMARK   15  A    between atoms: _32  and  _35
REMARK   16  A    between atoms: _35  and  _36
REMARK   17  A    between atoms: _38  and  _40
REMARK   18  A    between atoms: _40  and  _41
REMARK   19  A    between atoms: _40  and  _43
REMARK   20  A    between atoms: _43  and  _44
REMARK   21  A    between atoms: _44  and  _45
REMARK   22  A    between atoms: _45  and  _46
REMARK   23  A    between atoms: _55  and  _57
REMARK   24  A    between atoms: _57  and  _58
REMARK   25  A    between atoms: _57  and  _60
REMARK   26  A    between atoms: _60  and  _61
REMARK   27  A    between atoms: _64  and  _66
REMARK   28  A    between atoms: _66  and  _67
REMARK   29  A    between atoms: _66  and  _69
REMARK   30  A    between atoms: _69  and  _70
REMARK   31  A    between atoms: _70  and  _71
REMARK   32  A    between atoms: _71  and  _72
REMARK   33  A    between atoms: _72  and  _73
REMARK   34  A    between atoms: _77  and  _79
REMARK   35  A    between atoms: _79  and  _80
REMARK   36  A    between atoms: _79  and  _82
REMARK   37  A    between atoms: _82  and  _83
REMARK   38  A    between atoms: _88  and  _89
REMARK   39  A    between atoms: _91  and  _93
REMARK   40  A    between atoms: _93  and  _94
REMARK   41  A    between atoms: _93  and  _96
REMARK   42  A    between atoms: _96  and  _97
REMARK   43  A    between atoms: _107  and  _109
REMARK   44  A    between atoms: _109  and  _110
REMARK   45  A    between atoms: _109  and  _112
REMARK   46  A    between atoms: _112  and  _113
REMARK   47  A    between atoms: _113  and  _114
REMARK   48  A    between atoms: _114  and  _115
REMARK   49  A    between atoms: _115  and  _116
REMARK   50  A    between atoms: _120  and  _122
REMARK   51  A    between atoms: _122  and  _123
REMARK   52  A    between atoms: _122  and  _125
REMARK   53  A    between atoms: _125  and  _126
REMARK   54  A    between atoms: _126  and  _127
REMARK   55  A    between atoms: _132  and  _134
REMARK   56  A    between atoms: _134  and  _135
REMARK   57  A    between atoms: _134  and  _137
REMARK   58  A    between atoms: _137  and  _138
REMARK   59  A    between atoms: _140  and  _142
REMARK   60  A    between atoms: _142  and  _143
REMARK   61  A    between atoms: _142  and  _145
REMARK   62  A    between atoms: _145  and  _146
REMARK   63  A    between atoms: _151  and  _153
REMARK   64  A    between atoms: _153  and  _154
REMARK   65  A    between atoms: _153  and  _156
REMARK   66  A    between atoms: _156  and  _157
REMARK   67  A    between atoms: _162  and  _164
REMARK   68  A    between atoms: _164  and  _165
REMARK   69  A    between atoms: _164  and  _167
REMARK   70  A    between atoms: _167  and  _168
REMARK   71  A    between atoms: _171  and  _173
REMARK   72  A    between atoms: _173  and  _174
REMARK   73  A    between atoms: _173  and  _176
REMARK   74  A    between atoms: _176  and  _177
REMARK   75  A    between atoms: _177  and  _178
REMARK   76  A    between atoms: _178  and  _179
REMARK   77  A    between atoms: _188  and  _190
REMARK   78  A    between atoms: _190  and  _191
REMARK   79  A    between atoms: _190  and  _193
REMARK   80  A    between atoms: _193  and  _194
REMARK   81  A    between atoms: _199  and  _200
REMARK   82  A    between atoms: _202  and  _204
REMARK   83  A    between atoms: _204  and  _205
REMARK   84  A    between atoms: _204  and  _207
REMARK   85  A    between atoms: _207  and  _208
REMARK   86  A    between atoms: _210  and  _212
REMARK   87  A    between atoms: _212  and  _213
REMARK   88  A    between atoms: _212  and  _215
REMARK   89  A    between atoms: _215  and  _216
REMARK   90  A    between atoms: _226  and  _228
REMARK   91  A    between atoms: _228  and  _229
REMARK   92  A    between atoms: _228  and  _231
REMARK   93  A    between atoms: _231  and  _232
REMARK   94  A    between atoms: _238  and  _240
REMARK   95  A    between atoms: _240  and  _241
REMARK   96  A    between atoms: _240  and  _243
REMARK   97  A    between atoms: _243  and  _244
REMARK   98  A    between atoms: _244  and  _245
REMARK   99  A    between atoms: _245  and  _246
REMARK  100  A    between atoms: _255  and  _257
REMARK  101  A    between atoms: _257  and  _258
REMARK  102  A    between atoms: _257  and  _260
REMARK  103  A    between atoms: _260  and  _261
REMARK  104  A    between atoms: _266  and  _268
REMARK  105  A    between atoms: _268  and  _269
REMARK  106  A    between atoms: _272  and  _274
REMARK  107  A    between atoms: _274  and  _275
REMARK  108  A    between atoms: _274  and  _277
REMARK  109  A    between atoms: _277  and  _278
REMARK  110  A    between atoms: _278  and  _279
REMARK  111  A    between atoms: _279  and  _280
REMARK  112  A    between atoms: _280  and  _281
REMARK  113  A    between atoms: _285  and  _287
REMARK  114  A    between atoms: _287  and  _288
REMARK  115  A    between atoms: _287  and  _290
REMARK  116  A    between atoms: _290  and  _291
REMARK  117  A    between atoms: _294  and  _296
REMARK  118  A    between atoms: _296  and  _297
REMARK  119  A    between atoms: _296  and  _299
REMARK  120  A    between atoms: _299  and  _300
REMARK  121  A    between atoms: _300  and  _301
REMARK  122  A    between atoms: _304  and  _306
REMARK  123  A    between atoms: _306  and  _307
REMARK  124  A    between atoms: _306  and  _309
REMARK  125  A    between atoms: _309  and  _310
REMARK  126  A    between atoms: _313  and  _315
REMARK  127  A    between atoms: _315  and  _316
REMARK  128  A    between atoms: _315  and  _318
REMARK  129  A    between atoms: _318  and  _319
REMARK  130  A    between atoms: _322  and  _324
REMARK  131  A    between atoms: _324  and  _325
REMARK  132  A    between atoms: _324  and  _327
REMARK  133  A    between atoms: _327  and  _328
REMARK  134  A    between atoms: _331  and  _332
REMARK  135  A    between atoms: _337  and  _339
REMARK  136  A    between atoms: _339  and  _340
REMARK  137  A    between atoms: _339  and  _342
REMARK  138  A    between atoms: _342  and  _343
REMARK  139  A    between atoms: _345  and  _347
REMARK  140  A    between atoms: _347  and  _348
REMARK  141  A    between atoms: _347  and  _350
REMARK  142  A    between atoms: _350  and  _351
REMARK  143  A    between atoms: _356  and  _357
REMARK  144  A    between atoms: _359  and  _361
REMARK  145  A    between atoms: _361  and  _362
REMARK  146  A    between atoms: _361  and  _364
REMARK  147  A    between atoms: _364  and  _365
REMARK  148  A    between atoms: _370  and  _371
REMARK  149  A    between atoms: _373  and  _375
REMARK  150  A    between atoms: _375  and  _376
REMARK  151  A    between atoms: _375  and  _378
REMARK  152  A    between atoms: _378  and  _379
REMARK  153  A    between atoms: _384  and  _385
REMARK  154  A    between atoms: _387  and  _389
REMARK  155  A    between atoms: _389  and  _390
REMARK  156  A    between atoms: _389  and  _392
REMARK  157  A    between atoms: _392  and  _393
REMARK  158  A    between atoms: _393  and  _394
REMARK  159  A    between atoms: _397  and  _399
REMARK  160  A    between atoms: _399  and  _400
REMARK  161  A    between atoms: _402  and  _404
REMARK  162  A    between atoms: _404  and  _405
REMARK  163  A    between atoms: _404  and  _407
REMARK  164  A    between atoms: _407  and  _408
REMARK                            x       y       z     vdW  Elec       q    Type
REMARK                         _______ _______ _______ _____ _____    ______ ____
ROOT
ATOM      1  O   HOH     1      -7.205  -1.793  -5.901  0.00  0.00    +0.000 OA
ENDROOT
TORSDOF 0
REMARK  Name = ../refined-set-2016/3ijh/3ijh_pocket.pdb
REMARK  164 active torsions:
REMARK  status: ('A' for Active; 'I' for Inactive)
REMARK    1  A    between atoms: _1  and  _3
REMARK    2  A    between atoms: _3  and  _4
REMARK    3  A    between atoms: _3  and  _6
REMARK    4  A    between atoms: _6  and  _7
REMARK    5  A    between atoms: _10  and  _12
REMARK    6  A    between atoms: _12  and  _13
REMARK    7  A    between atoms: _12  and  _15
REMARK    8  A    between atoms: _15  and  _16
REMARK    9  A    between atoms: _19  and  _21
REMARK   10  A    between atoms: _21  and  _22
REMARK   11  A    between atoms: _21  and  _24
REMARK   12  A    between atoms: _24  and  _25
REMARK   13  A    between atoms: _30  and  _32
REMARK   14  A    between atoms: _32  and  _33
REMARK   15  A    between atoms: _32  and  _35
REMARK   16  A    between atoms: _35  and  _36
REMARK   17  A    between atoms: _38  and  _40
REMARK   18  A    between atoms: _40  and  _41
REMARK   19  A    between atoms: _40  and  _43
REMARK   20  A    between atoms: _43  and  _44
REMARK   21  A    between atoms: _44  and  _45
REMARK   22  A    between atoms: _45  and  _46
REMARK   23  A    between atoms: _55  and  _57
REMARK   24  A    between atoms: _57  and  _58
REMARK   25  A    between atoms: _57  and  _60
REMARK   26  A    between atoms: _60  and  _61
REMARK   27  A    between atoms: _64  and  _66
REMARK   28  A    between atoms: _66  and  _67
REMARK   29  A    between atoms: _66  and  _69
REMARK   30  A    between atoms: _69  and  _70
REMARK   31  A    between atoms: _70  and  _71
REMARK   32  A    between atoms: _71  and  _72
REMARK   33  A    between atoms: _72  and  _73
REMARK   34  A    between atoms: _77  and  _79
REMARK   35  A    between atoms: _79  and  _80
REMARK   36  A    between atoms: _79  and  _82
REMARK   37  A    between atoms: _82  and  _83
REMARK   38  A    between atoms: _88  and  _89
REMARK   39  A    between atoms: _91  and  _93
REMARK   40  A    between atoms: _93  and  _94
REMARK   41  A    between atoms: _93  and  _96
REMARK   42  A    between atoms: _96  and  _97
REMARK   43  A    between atoms: _107  and  _109
REMARK   44  A    between atoms: _109  and  _110
REMARK   45  A    between atoms: _109  and  _112
REMARK   46  A    between atoms: _112  and  _113
REMARK   47  A    between atoms: _113  and  _114
REMARK   48  A    between atoms: _114  and  _115
REMARK   49  A    between atoms: _115  and  _116
REMARK   50  A    between atoms: _120  and  _122
REMARK   51  A    between atoms: _122  and  _123
REMARK   52  A    between atoms: _122  and  _125
REMARK   53  A    between atoms: _125  and  _126
REMARK   54  A    between atoms: _126  and  _127
REMARK   55  A    between atoms: _132  and  _134
REMARK   56  A    between atoms: _134  and  _135
REMARK   57  A    between atoms: _134  and  _137
REMARK   58  A    between atoms: _137  and  _138
REMARK   59  A    between atoms: _140  and  _142
REMARK   60  A    between atoms: _142  and  _143
REMARK   61  A    between atoms: _142  and  _145
REMARK   62  A    between atoms: _145  and  _146
REMARK   63  A    between atoms: _151  and  _153
REMARK   64  A    between atoms: _153  and  _154
REMARK   65  A    between atoms: _153  and  _156
REMARK   66  A    between atoms: _156  and  _157
REMARK   67  A    between atoms: _162  and  _164
REMARK   68  A    between atoms: _164  and  _165
REMARK   69  A    between atoms: _164  and  _167
REMARK   70  A    between atoms: _167  and  _168
REMARK   71  A    between atoms: _171  and  _173
REMARK   72  A    between atoms: _173  and  _174
REMARK   73  A    between atoms: _173  and  _176
REMARK   74  A    between atoms: _176  and  _177
REMARK   75  A    between atoms: _177  and  _178
REMARK   76  A    between atoms: _178  and  _179
REMARK   77  A    between atoms: _188  and  _190
REMARK   78  A    between atoms: _190  and  _191
REMARK   79  A    between atoms: _190  and  _193
REMARK   80  A    between atoms: _193  and  _194
REMARK   81  A    between atoms: _199  and  _200
REMARK   82  A    between atoms: _202  and  _204
REMARK   83  A    between atoms: _204  and  _205
REMARK   84  A    between atoms: _204  and  _207
REMARK   85  A    between atoms: _207  and  _208
REMARK   86  A    between atoms: _210  and  _212
REMARK   87  A    between atoms: _212  and  _213
REMARK   88  A    between atoms: _212  and  _215
REMARK   89  A    between atoms: _215  and  _216
REMARK   90  A    between atoms: _226  and  _228
REMARK   91  A    between atoms: _228  and  _229
REMARK   92  A    between atoms: _228  and  _231
REMARK   93  A    between atoms: _231  and  _232
REMARK   94  A    between atoms: _238  and  _240
REMARK   95  A    between atoms: _240  and  _241
REMARK   96  A    between atoms: _240  and  _243
REMARK   97  A    between atoms: _243  and  _244
REMARK   98  A    between atoms: _244  and  _245
REMARK   99  A    between atoms: _245  and  _246
REMARK  100  A    between atoms: _255  and  _257
REMARK  101  A    between atoms: _257  and  _258
REMARK  102  A    between atoms: _257  and  _260
REMARK  103  A    between atoms: _260  and  _261
REMARK  104  A    between atoms: _266  and  _268
REMARK  105  A    between atoms: _268  and  _269
REMARK  106  A    between atoms: _272  and  _274
REMARK  107  A    between atoms: _274  and  _275
REMARK  108  A    between atoms: _274  and  _277
REMARK  109  A    between atoms: _277  and  _278
REMARK  110  A    between atoms: _278  and  _279
REMARK  111  A    between atoms: _279  and  _280
REMARK  112  A    between atoms: _280  and  _281
REMARK  113  A    between atoms: _285  and  _287
REMARK  114  A    between atoms: _287  and  _288
REMARK  115  A    between atoms: _287  and  _290
REMARK  116  A    between atoms: _290  and  _291
REMARK  117  A    between atoms: _294  and  _296
REMARK  118  A    between atoms: _296  and  _297
REMARK  119  A    between atoms: _296  and  _299
REMARK  120  A    between atoms: _299  and  _300
REMARK  121  A    between atoms: _300  and  _301
REMARK  122  A    between atoms: _304  and  _306
REMARK  123  A    between atoms: _306  and  _307
REMARK  124  A    between atoms: _306  and  _309
REMARK  125  A    between atoms: _309  and  _310
REMARK  126  A    between atoms: _313  and  _315
REMARK  127  A    between atoms: _315  and  _316
REMARK  128  A    between atoms: _315  and  _318
REMARK  129  A    between atoms: _318  and  _319
REMARK  130  A    between atoms: _322  and  _324
REMARK  131  A    between atoms: _324  and  _325
REMARK  132  A    between atoms: _324  and  _327
REMARK  133  A    between atoms: _327  and  _328
REMARK  134  A    between atoms: _331  and  _332
REMARK  135  A    between atoms: _337  and  _339
REMARK  136  A    between atoms: _339  and  _340
REMARK  137  A    between atoms: _339  and  _342
REMARK  138  A    between atoms: _342  and  _343
REMARK  139  A    between atoms: _345  and  _347
REMARK  140  A    between atoms: _347  and  _348
REMARK  141  A    between atoms: _347  and  _350
REMARK  142  A    between atoms: _350  and  _351
REMARK  143  A    between atoms: _356  and  _357
REMARK  144  A    between atoms: _359  and  _361
REMARK  145  A    between atoms: _361  and  _362
REMARK  146  A    between atoms: _361  and  _364
REMARK  147  A    between atoms: _364  and  _365
REMARK  148  A    between atoms: _370  and  _371
REMARK  149  A    between atoms: _373  and  _375
REMARK  150  A    between atoms: _375  and  _376
REMARK  151  A    between atoms: _375  and  _378
REMARK  152  A    between atoms: _378  and  _379
REMARK  153  A    between atoms: _384  and  _385
REMARK  154  A    between atoms: _387  and  _389
REMARK  155  A    between atoms: _389  and  _390
REMARK  156  A    between atoms: _389  and  _392
REMARK  157  A    between atoms: _392  and  _393
REMARK  158  A    between atoms: _393  and  _394
REMARK  159  A    between atoms: _397  and  _399
REMARK  160  A    between atoms: _399  and  _400
REMARK  161  A    between atoms: _402  and  _404
REMARK  162  A    between atoms: _404  and  _405
REMARK  163  A    between atoms: _404  and  _407
REMARK  164  A    between atoms: _407  and  _408
REMARK                            x       y       z     vdW  Elec       q    Type
REMARK                         _______ _______ _______ _____ _____    ______ ____
ROOT
ATOM      1  O   HOH     1      -9.522 -11.524  -2.711  0.00  0.00    +0.000 OA
ENDROOT
TORSDOF 0
REMARK  Name = ../refined-set-2016/3ijh/3ijh_pocket.pdb
REMARK  164 active torsions:
REMARK  status: ('A' for Active; 'I' for Inactive)
REMARK    1  A    between atoms: _1  and  _3
REMARK    2  A    between atoms: _3  and  _4
REMARK    3  A    between atoms: _3  and  _6
REMARK    4  A    between atoms: _6  and  _7
REMARK    5  A    between atoms: _10  and  _12
REMARK    6  A    between atoms: _12  and  _13
REMARK    7  A    between atoms: _12  and  _15
REMARK    8  A    between atoms: _15  and  _16
REMARK    9  A    between atoms: _19  and  _21
REMARK   10  A    between atoms: _21  and  _22
REMARK   11  A    between atoms: _21  and  _24
REMARK   12  A    between atoms: _24  and  _25
REMARK   13  A    between atoms: _30  and  _32
REMARK   14  A    between atoms: _32  and  _33
REMARK   15  A    between atoms: _32  and  _35
REMARK   16  A    between atoms: _35  and  _36
REMARK   17  A    between atoms: _38  and  _40
REMARK   18  A    between atoms: _40  and  _41
REMARK   19  A    between atoms: _40  and  _43
REMARK   20  A    between atoms: _43  and  _44
REMARK   21  A    between atoms: _44  and  _45
REMARK   22  A    between atoms: _45  and  _46
REMARK   23  A    between atoms: _55  and  _57
REMARK   24  A    between atoms: _57  and  _58
REMARK   25  A    between atoms: _57  and  _60
REMARK   26  A    between atoms: _60  and  _61
REMARK   27  A    between atoms: _64  and  _66
REMARK   28  A    between atoms: _66  and  _67
REMARK   29  A    between atoms: _66  and  _69
REMARK   30  A    between atoms: _69  and  _70
REMARK   31  A    between atoms: _70  and  _71
REMARK   32  A    between atoms: _71  and  _72
REMARK   33  A    between atoms: _72  and  _73
REMARK   34  A    between atoms: _77  and  _79
REMARK   35  A    between atoms: _79  and  _80
REMARK   36  A    between atoms: _79  and  _82
REMARK   37  A    between atoms: _82  and  _83
REMARK   38  A    between atoms: _88  and  _89
REMARK   39  A    between atoms: _91  and  _93
REMARK   40  A    between atoms: _93  and  _94
REMARK   41  A    between atoms: _93  and  _96
REMARK   42  A    between atoms: _96  and  _97
REMARK   43  A    between atoms: _107  and  _109
REMARK   44  A    between atoms: _109  and  _110
REMARK   45  A    between atoms: _109  and  _112
REMARK   46  A    between atoms: _112  and  _113
REMARK   47  A    between atoms: _113  and  _114
REMARK   48  A    between atoms: _114  and  _115
REMARK   49  A    between atoms: _115  and  _116
REMARK   50  A    between atoms: _120  and  _122
REMARK   51  A    between atoms: _122  and  _123
REMARK   52  A    between atoms: _122  and  _125
REMARK   53  A    between atoms: _125  and  _126
REMARK   54  A    between atoms: _126  and  _127
REMARK   55  A    between atoms: _132  and  _134
REMARK   56  A    between atoms: _134  and  _135
REMARK   57  A    between atoms: _134  and  _137
REMARK   58  A    between atoms: _137  and  _138
REMARK   59  A    between atoms: _140  and  _142
REMARK   60  A    between atoms: _142  and  _143
REMARK   61  A    between atoms: _142  and  _145
REMARK   62  A    between atoms: _145  and  _146
REMARK   63  A    between atoms: _151  and  _153
REMARK   64  A    between atoms: _153  and  _154
REMARK   65  A    between atoms: _153  and  _156
REMARK   66  A    between atoms: _156  and  _157
REMARK   67  A    between atoms: _162  and  _164
REMARK   68  A    between atoms: _164  and  _165
REMARK   69  A    between atoms: _164  and  _167
REMARK   70  A    between atoms: _167  and  _168
REMARK   71  A    between atoms: _171  and  _173
REMARK   72  A    between atoms: _173  and  _174
REMARK   73  A    between atoms: _173  and  _176
REMARK   74  A    between atoms: _176  and  _177
REMARK   75  A    between atoms: _177  and  _178
REMARK   76  A    between atoms: _178  and  _179
REMARK   77  A    between atoms: _188  and  _190
REMARK   78  A    between atoms: _190  and  _191
REMARK   79  A    between atoms: _190  and  _193
REMARK   80  A    between atoms: _193  and  _194
REMARK   81  A    between atoms: _199  and  _200
REMARK   82  A    between atoms: _202  and  _204
REMARK   83  A    between atoms: _204  and  _205
REMARK   84  A    between atoms: _204  and  _207
REMARK   85  A    between atoms: _207  and  _208
REMARK   86  A    between atoms: _210  and  _212
REMARK   87  A    between atoms: _212  and  _213
REMARK   88  A    between atoms: _212  and  _215
REMARK   89  A    between atoms: _215  and  _216
REMARK   90  A    between atoms: _226  and  _228
REMARK   91  A    between atoms: _228  and  _229
REMARK   92  A    between atoms: _228  and  _231
REMARK   93  A    between atoms: _231  and  _232
REMARK   94  A    between atoms: _238  and  _240
REMARK   95  A    between atoms: _240  and  _241
REMARK   96  A    between atoms: _240  and  _243
REMARK   97  A    between atoms: _243  and  _244
REMARK   98  A    between atoms: _244  and  _245
REMARK   99  A    between atoms: _245  and  _246
REMARK  100  A    between atoms: _255  and  _257
REMARK  101  A    between atoms: _257  and  _258
REMARK  102  A    between atoms: _257  and  _260
REMARK  103  A    between atoms: _260  and  _261
REMARK  104  A    between atoms: _266  and  _268
REMARK  105  A    between atoms: _268  and  _269
REMARK  106  A    between atoms: _272  and  _274
REMARK  107  A    between atoms: _274  and  _275
REMARK  108  A    between atoms: _274  and  _277
REMARK  109  A    between atoms: _277  and  _278
REMARK  110  A    between atoms: _278  and  _279
REMARK  111  A    between atoms: _279  and  _280
REMARK  112  A    between atoms: _280  and  _281
REMARK  113  A    between atoms: _285  and  _287
REMARK  114  A    between atoms: _287  and  _288
REMARK  115  A    between atoms: _287  and  _290
REMARK  116  A    between atoms: _290  and  _291
REMARK  117  A    between atoms: _294  and  _296
REMARK  118  A    between atoms: _296  and  _297
REMARK  119  A    between atoms: _296  and  _299
REMARK  120  A    between atoms: _299  and  _300
REMARK  121  A    between atoms: _300  and  _301
REMARK  122  A    between atoms: _304  and  _306
REMARK  123  A    between atoms: _306  and  _307
REMARK  124  A    between atoms: _306  and  _309
REMARK  125  A    between atoms: _309  and  _310
REMARK  126  A    between atoms: _313  and  _315
REMARK  127  A    between atoms: _315  and  _316
REMARK  128  A    between atoms: _315  and  _318
REMARK  129  A    between atoms: _318  and  _319
REMARK  130  A    between atoms: _322  and  _324
REMARK  131  A    between atoms: _324  and  _325
REMARK  132  A    between atoms: _324  and  _327
REMARK  133  A    between atoms: _327  and  _328
REMARK  134  A    between atoms: _331  and  _332
REMARK  135  A    between atoms: _337  and  _339
REMARK  136  A    between atoms: _339  and  _340
REMARK  137  A    between atoms: _339  and  _342
REMARK  138  A    between atoms: _342  and  _343
REMARK  139  A    between atoms: _345  and  _347
REMARK  140  A    between atoms: _347  and  _348
REMARK  141  A    between atoms: _347  and  _350
REMARK  142  A    between atoms: _350  and  _351
REMARK  143  A    between atoms: _356  and  _357
REMARK  144  A    between atoms: _359  and  _361
REMARK  145  A    between atoms: _361  and  _362
REMARK  146  A    between atoms: _361  and  _364
REMARK  147  A    between atoms: _364  and  _365
REMARK  148  A    between atoms: _370  and  _371
REMARK  149  A    between atoms: _373  and  _375
REMARK  150  A    between atoms: _375  and  _376
REMARK  151  A    between atoms: _375  and  _378
REMARK  152  A    between atoms: _378  and  _379
REMARK  153  A    between atoms: _384  and  _385
REMARK  154  A    between atoms: _387  and  _389
REMARK  155  A    between atoms: _389  and  _390
REMARK  156  A    between atoms: _389  and  _392
REMARK  157  A    between atoms: _392  and  _393
REMARK  158  A    between atoms: _393  and  _394
REMARK  159  A    between atoms: _397  and  _399
REMARK  160  A    between atoms: _399  and  _400
REMARK  161  A    between atoms: _402  and  _404
REMARK  162  A    between atoms: _404  and  _405
REMARK  163  A    between atoms: _404  and  _407
REMARK  164  A    between atoms: _407  and  _408
REMARK                            x       y       z     vdW  Elec       q    Type
REMARK                         _______ _______ _______ _____ _____    ______ ____
ROOT
ATOM      1  O   HOH     1      -8.826   6.358   3.769  0.00  0.00    +0.000 OA
ENDROOT
TORSDOF 0
REMARK  Name = ../refined-set-2016/3ijh/3ijh_pocket.pdb
REMARK  164 active torsions:
REMARK  status: ('A' for Active; 'I' for Inactive)
REMARK    1  A    between atoms: _1  and  _3
REMARK    2  A    between atoms: _3  and  _4
REMARK    3  A    between atoms: _3  and  _6
REMARK    4  A    between atoms: _6  and  _7
REMARK    5  A    between atoms: _10  and  _12
REMARK    6  A    between atoms: _12  and  _13
REMARK    7  A    between atoms: _12  and  _15
REMARK    8  A    between atoms: _15  and  _16
REMARK    9  A    between atoms: _19  and  _21
REMARK   10  A    between atoms: _21  and  _22
REMARK   11  A    between atoms: _21  and  _24
REMARK   12  A    between atoms: _24  and  _25
REMARK   13  A    between atoms: _30  and  _32
REMARK   14  A    between atoms: _32  and  _33
REMARK   15  A    between atoms: _32  and  _35
REMARK   16  A    between atoms: _35  and  _36
REMARK   17  A    between atoms: _38  and  _40
REMARK   18  A    between atoms: _40  and  _41
REMARK   19  A    between atoms: _40  and  _43
REMARK   20  A    between atoms: _43  and  _44
REMARK   21  A    between atoms: _44  and  _45
REMARK   22  A    between atoms: _45  and  _46
REMARK   23  A    between atoms: _55  and  _57
REMARK   24  A    between atoms: _57  and  _58
REMARK   25  A    between atoms: _57  and  _60
REMARK   26  A    between atoms: _60  and  _61
REMARK   27  A    between atoms: _64  and  _66
REMARK   28  A    between atoms: _66  and  _67
REMARK   29  A    between atoms: _66  and  _69
REMARK   30  A    between atoms: _69  and  _70
REMARK   31  A    between atoms: _70  and  _71
REMARK   32  A    between atoms: _71  and  _72
REMARK   33  A    between atoms: _72  and  _73
REMARK   34  A    between atoms: _77  and  _79
REMARK   35  A    between atoms: _79  and  _80
REMARK   36  A    between atoms: _79  and  _82
REMARK   37  A    between atoms: _82  and  _83
REMARK   38  A    between atoms: _88  and  _89
REMARK   39  A    between atoms: _91  and  _93
REMARK   40  A    between atoms: _93  and  _94
REMARK   41  A    between atoms: _93  and  _96
REMARK   42  A    between atoms: _96  and  _97
REMARK   43  A    between atoms: _107  and  _109
REMARK   44  A    between atoms: _109  and  _110
REMARK   45  A    between atoms: _109  and  _112
REMARK   46  A    between atoms: _112  and  _113
REMARK   47  A    between atoms: _113  and  _114
REMARK   48  A    between atoms: _114  and  _115
REMARK   49  A    between atoms: _115  and  _116
REMARK   50  A    between atoms: _120  and  _122
REMARK   51  A    between atoms: _122  and  _123
REMARK   52  A    between atoms: _122  and  _125
REMARK   53  A    between atoms: _125  and  _126
REMARK   54  A    between atoms: _126  and  _127
REMARK   55  A    between atoms: _132  and  _134
REMARK   56  A    between atoms: _134  and  _135
REMARK   57  A    between atoms: _134  and  _137
REMARK   58  A    between atoms: _137  and  _138
REMARK   59  A    between atoms: _140  and  _142
REMARK   60  A    between atoms: _142  and  _143
REMARK   61  A    between atoms: _142  and  _145
REMARK   62  A    between atoms: _145  and  _146
REMARK   63  A    between atoms: _151  and  _153
REMARK   64  A    between atoms: _153  and  _154
REMARK   65  A    between atoms: _153  and  _156
REMARK   66  A    between atoms: _156  and  _157
REMARK   67  A    between atoms: _162  and  _164
REMARK   68  A    between atoms: _164  and  _165
REMARK   69  A    between atoms: _164  and  _167
REMARK   70  A    between atoms: _167  and  _168
REMARK   71  A    between atoms: _171  and  _173
REMARK   72  A    between atoms: _173  and  _174
REMARK   73  A    between atoms: _173  and  _176
REMARK   74  A    between atoms: _176  and  _177
REMARK   75  A    between atoms: _177  and  _178
REMARK   76  A    between atoms: _178  and  _179
REMARK   77  A    between atoms: _188  and  _190
REMARK   78  A    between atoms: _190  and  _191
REMARK   79  A    between atoms: _190  and  _193
REMARK   80  A    between atoms: _193  and  _194
REMARK   81  A    between atoms: _199  and  _200
REMARK   82  A    between atoms: _202  and  _204
REMARK   83  A    between atoms: _204  and  _205
REMARK   84  A    between atoms: _204  and  _207
REMARK   85  A    between atoms: _207  and  _208
REMARK   86  A    between atoms: _210  and  _212
REMARK   87  A    between atoms: _212  and  _213
REMARK   88  A    between atoms: _212  and  _215
REMARK   89  A    between atoms: _215  and  _216
REMARK   90  A    between atoms: _226  and  _228
REMARK   91  A    between atoms: _228  and  _229
REMARK   92  A    between atoms: _228  and  _231
REMARK   93  A    between atoms: _231  and  _232
REMARK   94  A    between atoms: _238  and  _240
REMARK   95  A    between atoms: _240  and  _241
REMARK   96  A    between atoms: _240  and  _243
REMARK   97  A    between atoms: _243  and  _244
REMARK   98  A    between atoms: _244  and  _245
REMARK   99  A    between atoms: _245  and  _246
REMARK  100  A    between atoms: _255  and  _257
REMARK  101  A    between atoms: _257  and  _258
REMARK  102  A    between atoms: _257  and  _260
REMARK  103  A    between atoms: _260  and  _261
REMARK  104  A    between atoms: _266  and  _268
REMARK  105  A    between atoms: _268  and  _269
REMARK  106  A    between atoms: _272  and  _274
REMARK  107  A    between atoms: _274  and  _275
REMARK  108  A    between atoms: _274  and  _277
REMARK  109  A    between atoms: _277  and  _278
REMARK  110  A    between atoms: _278  and  _279
REMARK  111  A    between atoms: _279  and  _280
REMARK  112  A    between atoms: _280  and  _281
REMARK  113  A    between atoms: _285  and  _287
REMARK  114  A    between atoms: _287  and  _288
REMARK  115  A    between atoms: _287  and  _290
REMARK  116  A    between atoms: _290  and  _291
REMARK  117  A    between atoms: _294  and  _296
REMARK  118  A    between atoms: _296  and  _297
REMARK  119  A    between atoms: _296  and  _299
REMARK  120  A    between atoms: _299  and  _300
REMARK  121  A    between atoms: _300  and  _301
REMARK  122  A    between atoms: _304  and  _306
REMARK  123  A    between atoms: _306  and  _307
REMARK  124  A    between atoms: _306  and  _309
REMARK  125  A    between atoms: _309  and  _310
REMARK  126  A    between atoms: _313  and  _315
REMARK  127  A    between atoms: _315  and  _316
REMARK  128  A    between atoms: _315  and  _318
REMARK  129  A    between atoms: _318  and  _319
REMARK  130  A    between atoms: _322  and  _324
REMARK  131  A    between atoms: _324  and  _325
REMARK  132  A    between atoms: _324  and  _327
REMARK  133  A    between atoms: _327  and  _328
REMARK  134  A    between atoms: _331  and  _332
REMARK  135  A    between atoms: _337  and  _339
REMARK  136  A    between atoms: _339  and  _340
REMARK  137  A    between atoms: _339  and  _342
REMARK  138  A    between atoms: _342  and  _343
REMARK  139  A    between atoms: _345  and  _347
REMARK  140  A    between atoms: _347  and  _348
REMARK  141  A    between atoms: _347  and  _350
REMARK  142  A    between atoms: _350  and  _351
REMARK  143  A    between atoms: _356  and  _357
REMARK  144  A    between atoms: _359  and  _361
REMARK  145  A    between atoms: _361  and  _362
REMARK  146  A    between atoms: _361  and  _364
REMARK  147  A    between atoms: _364  and  _365
REMARK  148  A    between atoms: _370  and  _371
REMARK  149  A    between atoms: _373  and  _375
REMARK  150  A    between atoms: _375  and  _376
REMARK  151  A    between atoms: _375  and  _378
REMARK  152  A    between atoms: _378  and  _379
REMARK  153  A    between atoms: _384  and  _385
REMARK  154  A    between atoms: _387  and  _389
REMARK  155  A    between atoms: _389  and  _390
REMARK  156  A    between atoms: _389  and  _392
REMARK  157  A    between atoms: _392  and  _393
REMARK  158  A    between atoms: _393  and  _394
REMARK  159  A    between atoms: _397  and  _399
REMARK  160  A    between atoms: _399  and  _400
REMARK  161  A    between atoms: _402  and  _404
REMARK  162  A    between atoms: _404  and  _405
REMARK  163  A    between atoms: _404  and  _407
REMARK  164  A    between atoms: _407  and  _408
REMARK                            x       y       z     vdW  Elec       q    Type
REMARK                         _______ _______ _______ _____ _____    ______ ____
ROOT
ATOM      1  O   HOH     1      -6.948  -8.628   0.417  0.00  0.00    +0.000 OA
ENDROOT
TORSDOF 0
REMARK  Name = ../refined-set-2016/3ijh/3ijh_pocket.pdb
REMARK  164 active torsions:
REMARK  status: ('A' for Active; 'I' for Inactive)
REMARK    1  A    between atoms: _1  and  _3
REMARK    2  A    between atoms: _3  and  _4
REMARK    3  A    between atoms: _3  and  _6
REMARK    4  A    between atoms: _6  and  _7
REMARK    5  A    between atoms: _10  and  _12
REMARK    6  A    between atoms: _12  and  _13
REMARK    7  A    between atoms: _12  and  _15
REMARK    8  A    between atoms: _15  and  _16
REMARK    9  A    between atoms: _19  and  _21
REMARK   10  A    between atoms: _21  and  _22
REMARK   11  A    between atoms: _21  and  _24
REMARK   12  A    between atoms: _24  and  _25
REMARK   13  A    between atoms: _30  and  _32
REMARK   14  A    between atoms: _32  and  _33
REMARK   15  A    between atoms: _32  and  _35
REMARK   16  A    between atoms: _35  and  _36
REMARK   17  A    between atoms: _38  and  _40
REMARK   18  A    between atoms: _40  and  _41
REMARK   19  A    between atoms: _40  and  _43
REMARK   20  A    between atoms: _43  and  _44
REMARK   21  A    between atoms: _44  and  _45
REMARK   22  A    between atoms: _45  and  _46
REMARK   23  A    between atoms: _55  and  _57
REMARK   24  A    between atoms: _57  and  _58
REMARK   25  A    between atoms: _57  and  _60
REMARK   26  A    between atoms: _60  and  _61
REMARK   27  A    between atoms: _64  and  _66
REMARK   28  A    between atoms: _66  and  _67
REMARK   29  A    between atoms: _66  and  _69
REMARK   30  A    between atoms: _69  and  _70
REMARK   31  A    between atoms: _70  and  _71
REMARK   32  A    between atoms: _71  and  _72
REMARK   33  A    between atoms: _72  and  _73
REMARK   34  A    between atoms: _77  and  _79
REMARK   35  A    between atoms: _79  and  _80
REMARK   36  A    between atoms: _79  and  _82
REMARK   37  A    between atoms: _82  and  _83
REMARK   38  A    between atoms: _88  and  _89
REMARK   39  A    between atoms: _91  and  _93
REMARK   40  A    between atoms: _93  and  _94
REMARK   41  A    between atoms: _93  and  _96
REMARK   42  A    between atoms: _96  and  _97
REMARK   43  A    between atoms: _107  and  _109
REMARK   44  A    between atoms: _109  and  _110
REMARK   45  A    between atoms: _109  and  _112
REMARK   46  A    between atoms: _112  and  _113
REMARK   47  A    between atoms: _113  and  _114
REMARK   48  A    between atoms: _114  and  _115
REMARK   49  A    between atoms: _115  and  _116
REMARK   50  A    between atoms: _120  and  _122
REMARK   51  A    between atoms: _122  and  _123
REMARK   52  A    between atoms: _122  and  _125
REMARK   53  A    between atoms: _125  and  _126
REMARK   54  A    between atoms: _126  and  _127
REMARK   55  A    between atoms: _132  and  _134
REMARK   56  A    between atoms: _134  and  _135
REMARK   57  A    between atoms: _134  and  _137
REMARK   58  A    between atoms: _137  and  _138
REMARK   59  A    between atoms: _140  and  _142
REMARK   60  A    between atoms: _142  and  _143
REMARK   61  A    between atoms: _142  and  _145
REMARK   62  A    between atoms: _145  and  _146
REMARK   63  A    between atoms: _151  and  _153
REMARK   64  A    between atoms: _153  and  _154
REMARK   65  A    between atoms: _153  and  _156
REMARK   66  A    between atoms: _156  and  _157
REMARK   67  A    between atoms: _162  and  _164
REMARK   68  A    between atoms: _164  and  _165
REMARK   69  A    between atoms: _164  and  _167
REMARK   70  A    between atoms: _167  and  _168
REMARK   71  A    between atoms: _171  and  _173
REMARK   72  A    between atoms: _173  and  _174
REMARK   73  A    between atoms: _173  and  _176
REMARK   74  A    between atoms: _176  and  _177
REMARK   75  A    between atoms: _177  and  _178
REMARK   76  A    between atoms: _178  and  _179
REMARK   77  A    between atoms: _188  and  _190
REMARK   78  A    between atoms: _190  and  _191
REMARK   79  A    between atoms: _190  and  _193
REMARK   80  A    between atoms: _193  and  _194
REMARK   81  A    between atoms: _199  and  _200
REMARK   82  A    between atoms: _202  and  _204
REMARK   83  A    between atoms: _204  and  _205
REMARK   84  A    between atoms: _204  and  _207
REMARK   85  A    between atoms: _207  and  _208
REMARK   86  A    between atoms: _210  and  _212
REMARK   87  A    between atoms: _212  and  _213
REMARK   88  A    between atoms: _212  and  _215
REMARK   89  A    between atoms: _215  and  _216
REMARK   90  A    between atoms: _226  and  _228
REMARK   91  A    between atoms: _228  and  _229
REMARK   92  A    between atoms: _228  and  _231
REMARK   93  A    between atoms: _231  and  _232
REMARK   94  A    between atoms: _238  and  _240
REMARK   95  A    between atoms: _240  and  _241
REMARK   96  A    between atoms: _240  and  _243
REMARK   97  A    between atoms: _243  and  _244
REMARK   98  A    between atoms: _244  and  _245
REMARK   99  A    between atoms: _245  and  _246
REMARK  100  A    between atoms: _255  and  _257
REMARK  101  A    between atoms: _257  and  _258
REMARK  102  A    between atoms: _257  and  _260
REMARK  103  A    between atoms: _260  and  _261
REMARK  104  A    between atoms: _266  and  _268
REMARK  105  A    between atoms: _268  and  _269
REMARK  106  A    between atoms: _272  and  _274
REMARK  107  A    between atoms: _274  and  _275
REMARK  108  A    between atoms: _274  and  _277
REMARK  109  A    between atoms: _277  and  _278
REMARK  110  A    between atoms: _278  and  _279
REMARK  111  A    between atoms: _279  and  _280
REMARK  112  A    between atoms: _280  and  _281
REMARK  113  A    between atoms: _285  and  _287
REMARK  114  A    between atoms: _287  and  _288
REMARK  115  A    between atoms: _287  and  _290
REMARK  116  A    between atoms: _290  and  _291
REMARK  117  A    between atoms: _294  and  _296
REMARK  118  A    between atoms: _296  and  _297
REMARK  119  A    between atoms: _296  and  _299
REMARK  120  A    between atoms: _299  and  _300
REMARK  121  A    between atoms: _300  and  _301
REMARK  122  A    between atoms: _304  and  _306
REMARK  123  A    between atoms: _306  and  _307
REMARK  124  A    between atoms: _306  and  _309
REMARK  125  A    between atoms: _309  and  _310
REMARK  126  A    between atoms: _313  and  _315
REMARK  127  A    between atoms: _315  and  _316
REMARK  128  A    between atoms: _315  and  _318
REMARK  129  A    between atoms: _318  and  _319
REMARK  130  A    between atoms: _322  and  _324
REMARK  131  A    between atoms: _324  and  _325
REMARK  132  A    between atoms: _324  and  _327
REMARK  133  A    between atoms: _327  and  _328
REMARK  134  A    between atoms: _331  and  _332
REMARK  135  A    between atoms: _337  and  _339
REMARK  136  A    between atoms: _339  and  _340
REMARK  137  A    between atoms: _339  and  _342
REMARK  138  A    between atoms: _342  and  _343
REMARK  139  A    between atoms: _345  and  _347
REMARK  140  A    between atoms: _347  and  _348
REMARK  141  A    between atoms: _347  and  _350
REMARK  142  A    between atoms: _350  and  _351
REMARK  143  A    between atoms: _356  and  _357
REMARK  144  A    between atoms: _359  and  _361
REMARK  145  A    between atoms: _361  and  _362
REMARK  146  A    between atoms: _361  and  _364
REMARK  147  A    between atoms: _364  and  _365
REMARK  148  A    between atoms: _370  and  _371
REMARK  149  A    between atoms: _373  and  _375
REMARK  150  A    between atoms: _375  and  _376
REMARK  151  A    between atoms: _375  and  _378
REMARK  152  A    between atoms: _378  and  _379
REMARK  153  A    between atoms: _384  and  _385
REMARK  154  A    between atoms: _387  and  _389
REMARK  155  A    between atoms: _389  and  _390
REMARK  156  A    between atoms: _389  and  _392
REMARK  157  A    between atoms: _392  and  _393
REMARK  158  A    between atoms: _393  and  _394
REMARK  159  A    between atoms: _397  and  _399
REMARK  160  A    between atoms: _399  and  _400
REMARK  161  A    between atoms: _402  and  _404
REMARK  162  A    between atoms: _404  and  _405
REMARK  163  A    between atoms: _404  and  _407
REMARK  164  A    between atoms: _407  and  _408
REMARK                            x       y       z     vdW  Elec       q    Type
REMARK                         _______ _______ _______ _____ _____    ______ ____
ROOT
ATOM      1  O   HOH     1     -12.804  -1.741  -0.503  0.00  0.00    +0.000 OA
ENDROOT
TORSDOF 0
REMARK  Name = ../refined-set-2016/3ijh/3ijh_pocket.pdb
REMARK  164 active torsions:
REMARK  status: ('A' for Active; 'I' for Inactive)
REMARK    1  A    between atoms: _1  and  _3
REMARK    2  A    between atoms: _3  and  _4
REMARK    3  A    between atoms: _3  and  _6
REMARK    4  A    between atoms: _6  and  _7
REMARK    5  A    between atoms: _10  and  _12
REMARK    6  A    between atoms: _12  and  _13
REMARK    7  A    between atoms: _12  and  _15
REMARK    8  A    between atoms: _15  and  _16
REMARK    9  A    between atoms: _19  and  _21
REMARK   10  A    between atoms: _21  and  _22
REMARK   11  A    between atoms: _21  and  _24
REMARK   12  A    between atoms: _24  and  _25
REMARK   13  A    between atoms: _30  and  _32
REMARK   14  A    between atoms: _32  and  _33
REMARK   15  A    between atoms: _32  and  _35
REMARK   16  A    between atoms: _35  and  _36
REMARK   17  A    between atoms: _38  and  _40
REMARK   18  A    between atoms: _40  and  _41
REMARK   19  A    between atoms: _40  and  _43
REMARK   20  A    between atoms: _43  and  _44
REMARK   21  A    between atoms: _44  and  _45
REMARK   22  A    between atoms: _45  and  _46
REMARK   23  A    between atoms: _55  and  _57
REMARK   24  A    between atoms: _57  and  _58
REMARK   25  A    between atoms: _57  and  _60
REMARK   26  A    between atoms: _60  and  _61
REMARK   27  A    between atoms: _64  and  _66
REMARK   28  A    between atoms: _66  and  _67
REMARK   29  A    between atoms: _66  and  _69
REMARK   30  A    between atoms: _69  and  _70
REMARK   31  A    between atoms: _70  and  _71
REMARK   32  A    between atoms: _71  and  _72
REMARK   33  A    between atoms: _72  and  _73
REMARK   34  A    between atoms: _77  and  _79
REMARK   35  A    between atoms: _79  and  _80
REMARK   36  A    between atoms: _79  and  _82
REMARK   37  A    between atoms: _82  and  _83
REMARK   38  A    between atoms: _88  and  _89
REMARK   39  A    between atoms: _91  and  _93
REMARK   40  A    between atoms: _93  and  _94
REMARK   41  A    between atoms: _93  and  _96
REMARK   42  A    between atoms: _96  and  _97
REMARK   43  A    between atoms: _107  and  _109
REMARK   44  A    between atoms: _109  and  _110
REMARK   45  A    between atoms: _109  and  _112
REMARK   46  A    between atoms: _112  and  _113
REMARK   47  A    between atoms: _113  and  _114
REMARK   48  A    between atoms: _114  and  _115
REMARK   49  A    between atoms: _115  and  _116
REMARK   50  A    between atoms: _120  and  _122
REMARK   51  A    between atoms: _122  and  _123
REMARK   52  A    between atoms: _122  and  _125
REMARK   53  A    between atoms: _125  and  _126
REMARK   54  A    between atoms: _126  and  _127
REMARK   55  A    between atoms: _132  and  _134
REMARK   56  A    between atoms: _134  and  _135
REMARK   57  A    between atoms: _134  and  _137
REMARK   58  A    between atoms: _137  and  _138
REMARK   59  A    between atoms: _140  and  _142
REMARK   60  A    between atoms: _142  and  _143
REMARK   61  A    between atoms: _142  and  _145
REMARK   62  A    between atoms: _145  and  _146
REMARK   63  A    between atoms: _151  and  _153
REMARK   64  A    between atoms: _153  and  _154
REMARK   65  A    between atoms: _153  and  _156
REMARK   66  A    between atoms: _156  and  _157
REMARK   67  A    between atoms: _162  and  _164
REMARK   68  A    between atoms: _164  and  _165
REMARK   69  A    between atoms: _164  and  _167
REMARK   70  A    between atoms: _167  and  _168
REMARK   71  A    between atoms: _171  and  _173
REMARK   72  A    between atoms: _173  and  _174
REMARK   73  A    between atoms: _173  and  _176
REMARK   74  A    between atoms: _176  and  _177
REMARK   75  A    between atoms: _177  and  _178
REMARK   76  A    between atoms: _178  and  _179
REMARK   77  A    between atoms: _188  and  _190
REMARK   78  A    between atoms: _190  and  _191
REMARK   79  A    between atoms: _190  and  _193
REMARK   80  A    between atoms: _193  and  _194
REMARK   81  A    between atoms: _199  and  _200
REMARK   82  A    between atoms: _202  and  _204
REMARK   83  A    between atoms: _204  and  _205
REMARK   84  A    between atoms: _204  and  _207
REMARK   85  A    between atoms: _207  and  _208
REMARK   86  A    between atoms: _210  and  _212
REMARK   87  A    between atoms: _212  and  _213
REMARK   88  A    between atoms: _212  and  _215
REMARK   89  A    between atoms: _215  and  _216
REMARK   90  A    between atoms: _226  and  _228
REMARK   91  A    between atoms: _228  and  _229
REMARK   92  A    between atoms: _228  and  _231
REMARK   93  A    between atoms: _231  and  _232
REMARK   94  A    between atoms: _238  and  _240
REMARK   95  A    between atoms: _240  and  _241
REMARK   96  A    between atoms: _240  and  _243
REMARK   97  A    between atoms: _243  and  _244
REMARK   98  A    between atoms: _244  and  _245
REMARK   99  A    between atoms: _245  and  _246
REMARK  100  A    between atoms: _255  and  _257
REMARK  101  A    between atoms: _257  and  _258
REMARK  102  A    between atoms: _257  and  _260
REMARK  103  A    between atoms: _260  and  _261
REMARK  104  A    between atoms: _266  and  _268
REMARK  105  A    between atoms: _268  and  _269
REMARK  106  A    between atoms: _272  and  _274
REMARK  107  A    between atoms: _274  and  _275
REMARK  108  A    between atoms: _274  and  _277
REMARK  109  A    between atoms: _277  and  _278
REMARK  110  A    between atoms: _278  and  _279
REMARK  111  A    between atoms: _279  and  _280
REMARK  112  A    between atoms: _280  and  _281
REMARK  113  A    between atoms: _285  and  _287
REMARK  114  A    between atoms: _287  and  _288
REMARK  115  A    between atoms: _287  and  _290
REMARK  116  A    between atoms: _290  and  _291
REMARK  117  A    between atoms: _294  and  _296
REMARK  118  A    between atoms: _296  and  _297
REMARK  119  A    between atoms: _296  and  _299
REMARK  120  A    between atoms: _299  and  _300
REMARK  121  A    between atoms: _300  and  _301
REMARK  122  A    between atoms: _304  and  _306
REMARK  123  A    between atoms: _306  and  _307
REMARK  124  A    between atoms: _306  and  _309
REMARK  125  A    between atoms: _309  and  _310
REMARK  126  A    between atoms: _313  and  _315
REMARK  127  A    between atoms: _315  and  _316
REMARK  128  A    between atoms: _315  and  _318
REMARK  129  A    between atoms: _318  and  _319
REMARK  130  A    between atoms: _322  and  _324
REMARK  131  A    between atoms: _324  and  _325
REMARK  132  A    between atoms: _324  and  _327
REMARK  133  A    between atoms: _327  and  _328
REMARK  134  A    between atoms: _331  and  _332
REMARK  135  A    between atoms: _337  and  _339
REMARK  136  A    between atoms: _339  and  _340
REMARK  137  A    between atoms: _339  and  _342
REMARK  138  A    between atoms: _342  and  _343
REMARK  139  A    between atoms: _345  and  _347
REMARK  140  A    between atoms: _347  and  _348
REMARK  141  A    between atoms: _347  and  _350
REMARK  142  A    between atoms: _350  and  _351
REMARK  143  A    between atoms: _356  and  _357
REMARK  144  A    between atoms: _359  and  _361
REMARK  145  A    between atoms: _361  and  _362
REMARK  146  A    between atoms: _361  and  _364
REMARK  147  A    between atoms: _364  and  _365
REMARK  148  A    between atoms: _370  and  _371
REMARK  149  A    between atoms: _373  and  _375
REMARK  150  A    between atoms: _375  and  _376
REMARK  151  A    between atoms: _375  and  _378
REMARK  152  A    between atoms: _378  and  _379
REMARK  153  A    between atoms: _384  and  _385
REMARK  154  A    between atoms: _387  and  _389
REMARK  155  A    between atoms: _389  and  _390
REMARK  156  A    between atoms: _389  and  _392
REMARK  157  A    between atoms: _392  and  _393
REMARK  158  A    between atoms: _393  and  _394
REMARK  159  A    between atoms: _397  and  _399
REMARK  160  A    between atoms: _399  and  _400
REMARK  161  A    between atoms: _402  and  _404
REMARK  162  A    between atoms: _404  and  _405
REMARK  163  A    between atoms: _404  and  _407
REMARK  164  A    between atoms: _407  and  _408
REMARK                            x       y       z     vdW  Elec       q    Type
REMARK                         _______ _______ _______ _____ _____    ______ ____
ROOT
ATOM      1  O   HOH     1       1.718  -0.095   0.985  0.00  0.00    +0.000 OA
ENDROOT
TORSDOF 0
REMARK  Name = ../refined-set-2016/3ijh/3ijh_pocket.pdb
REMARK  164 active torsions:
REMARK  status: ('A' for Active; 'I' for Inactive)
REMARK    1  A    between atoms: _1  and  _3
REMARK    2  A    between atoms: _3  and  _4
REMARK    3  A    between atoms: _3  and  _6
REMARK    4  A    between atoms: _6  and  _7
REMARK    5  A    between atoms: _10  and  _12
REMARK    6  A    between atoms: _12  and  _13
REMARK    7  A    between atoms: _12  and  _15
REMARK    8  A    between atoms: _15  and  _16
REMARK    9  A    between atoms: _19  and  _21
REMARK   10  A    between atoms: _21  and  _22
REMARK   11  A    between atoms: _21  and  _24
REMARK   12  A    between atoms: _24  and  _25
REMARK   13  A    between atoms: _30  and  _32
REMARK   14  A    between atoms: _32  and  _33
REMARK   15  A    between atoms: _32  and  _35
REMARK   16  A    between atoms: _35  and  _36
REMARK   17  A    between atoms: _38  and  _40
REMARK   18  A    between atoms: _40  and  _41
REMARK   19  A    between atoms: _40  and  _43
REMARK   20  A    between atoms: _43  and  _44
REMARK   21  A    between atoms: _44  and  _45
REMARK   22  A    between atoms: _45  and  _46
REMARK   23  A    between atoms: _55  and  _57
REMARK   24  A    between atoms: _57  and  _58
REMARK   25  A    between atoms: _57  and  _60
REMARK   26  A    between atoms: _60  and  _61
REMARK   27  A    between atoms: _64  and  _66
REMARK   28  A    between atoms: _66  and  _67
REMARK   29  A    between atoms: _66  and  _69
REMARK   30  A    between atoms: _69  and  _70
REMARK   31  A    between atoms: _70  and  _71
REMARK   32  A    between atoms: _71  and  _72
REMARK   33  A    between atoms: _72  and  _73
REMARK   34  A    between atoms: _77  and  _79
REMARK   35  A    between atoms: _79  and  _80
REMARK   36  A    between atoms: _79  and  _82
REMARK   37  A    between atoms: _82  and  _83
REMARK   38  A    between atoms: _88  and  _89
REMARK   39  A    between atoms: _91  and  _93
REMARK   40  A    between atoms: _93  and  _94
REMARK   41  A    between atoms: _93  and  _96
REMARK   42  A    between atoms: _96  and  _97
REMARK   43  A    between atoms: _107  and  _109
REMARK   44  A    between atoms: _109  and  _110
REMARK   45  A    between atoms: _109  and  _112
REMARK   46  A    between atoms: _112  and  _113
REMARK   47  A    between atoms: _113  and  _114
REMARK   48  A    between atoms: _114  and  _115
REMARK   49  A    between atoms: _115  and  _116
REMARK   50  A    between atoms: _120  and  _122
REMARK   51  A    between atoms: _122  and  _123
REMARK   52  A    between atoms: _122  and  _125
REMARK   53  A    between atoms: _125  and  _126
REMARK   54  A    between atoms: _126  and  _127
REMARK   55  A    between atoms: _132  and  _134
REMARK   56  A    between atoms: _134  and  _135
REMARK   57  A    between atoms: _134  and  _137
REMARK   58  A    between atoms: _137  and  _138
REMARK   59  A    between atoms: _140  and  _142
REMARK   60  A    between atoms: _142  and  _143
REMARK   61  A    between atoms: _142  and  _145
REMARK   62  A    between atoms: _145  and  _146
REMARK   63  A    between atoms: _151  and  _153
REMARK   64  A    between atoms: _153  and  _154
REMARK   65  A    between atoms: _153  and  _156
REMARK   66  A    between atoms: _156  and  _157
REMARK   67  A    between atoms: _162  and  _164
REMARK   68  A    between atoms: _164  and  _165
REMARK   69  A    between atoms: _164  and  _167
REMARK   70  A    between atoms: _167  and  _168
REMARK   71  A    between atoms: _171  and  _173
REMARK   72  A    between atoms: _173  and  _174
REMARK   73  A    between atoms: _173  and  _176
REMARK   74  A    between atoms: _176  and  _177
REMARK   75  A    between atoms: _177  and  _178
REMARK   76  A    between atoms: _178  and  _179
REMARK   77  A    between atoms: _188  and  _190
REMARK   78  A    between atoms: _190  and  _191
REMARK   79  A    between atoms: _190  and  _193
REMARK   80  A    between atoms: _193  and  _194
REMARK   81  A    between atoms: _199  and  _200
REMARK   82  A    between atoms: _202  and  _204
REMARK   83  A    between atoms: _204  and  _205
REMARK   84  A    between atoms: _204  and  _207
REMARK   85  A    between atoms: _207  and  _208
REMARK   86  A    between atoms: _210  and  _212
REMARK   87  A    between atoms: _212  and  _213
REMARK   88  A    between atoms: _212  and  _215
REMARK   89  A    between atoms: _215  and  _216
REMARK   90  A    between atoms: _226  and  _228
REMARK   91  A    between atoms: _228  and  _229
REMARK   92  A    between atoms: _228  and  _231
REMARK   93  A    between atoms: _231  and  _232
REMARK   94  A    between atoms: _238  and  _240
REMARK   95  A    between atoms: _240  and  _241
REMARK   96  A    between atoms: _240  and  _243
REMARK   97  A    between atoms: _243  and  _244
REMARK   98  A    between atoms: _244  and  _245
REMARK   99  A    between atoms: _245  and  _246
REMARK  100  A    between atoms: _255  and  _257
REMARK  101  A    between atoms: _257  and  _258
REMARK  102  A    between atoms: _257  and  _260
REMARK  103  A    between atoms: _260  and  _261
REMARK  104  A    between atoms: _266  and  _268
REMARK  105  A    between atoms: _268  and  _269
REMARK  106  A    between atoms: _272  and  _274
REMARK  107  A    between atoms: _274  and  _275
REMARK  108  A    between atoms: _274  and  _277
REMARK  109  A    between atoms: _277  and  _278
REMARK  110  A    between atoms: _278  and  _279
REMARK  111  A    between atoms: _279  and  _280
REMARK  112  A    between atoms: _280  and  _281
REMARK  113  A    between atoms: _285  and  _287
REMARK  114  A    between atoms: _287  and  _288
REMARK  115  A    between atoms: _287  and  _290
REMARK  116  A    between atoms: _290  and  _291
REMARK  117  A    between atoms: _294  and  _296
REMARK  118  A    between atoms: _296  and  _297
REMARK  119  A    between atoms: _296  and  _299
REMARK  120  A    between atoms: _299  and  _300
REMARK  121  A    between atoms: _300  and  _301
REMARK  122  A    between atoms: _304  and  _306
REMARK  123  A    between atoms: _306  and  _307
REMARK  124  A    between atoms: _306  and  _309
REMARK  125  A    between atoms: _309  and  _310
REMARK  126  A    between atoms: _313  and  _315
REMARK  127  A    between atoms: _315  and  _316
REMARK  128  A    between atoms: _315  and  _318
REMARK  129  A    between atoms: _318  and  _319
REMARK  130  A    between atoms: _322  and  _324
REMARK  131  A    between atoms: _324  and  _325
REMARK  132  A    between atoms: _324  and  _327
REMARK  133  A    between atoms: _327  and  _328
REMARK  134  A    between atoms: _331  and  _332
REMARK  135  A    between atoms: _337  and  _339
REMARK  136  A    between atoms: _339  and  _340
REMARK  137  A    between atoms: _339  and  _342
REMARK  138  A    between atoms: _342  and  _343
REMARK  139  A    between atoms: _345  and  _347
REMARK  140  A    between atoms: _347  and  _348
REMARK  141  A    between atoms: _347  and  _350
REMARK  142  A    between atoms: _350  and  _351
REMARK  143  A    between atoms: _356  and  _357
REMARK  144  A    between atoms: _359  and  _361
REMARK  145  A    between atoms: _361  and  _362
REMARK  146  A    between atoms: _361  and  _364
REMARK  147  A    between atoms: _364  and  _365
REMARK  148  A    between atoms: _370  and  _371
REMARK  149  A    between atoms: _373  and  _375
REMARK  150  A    between atoms: _375  and  _376
REMARK  151  A    between atoms: _375  and  _378
REMARK  152  A    between atoms: _378  and  _379
REMARK  153  A    between atoms: _384  and  _385
REMARK  154  A    between atoms: _387  and  _389
REMARK  155  A    between atoms: _389  and  _390
REMARK  156  A    between atoms: _389  and  _392
REMARK  157  A    between atoms: _392  and  _393
REMARK  158  A    between atoms: _393  and  _394
REMARK  159  A    between atoms: _397  and  _399
REMARK  160  A    between atoms: _399  and  _400
REMARK  161  A    between atoms: _402  and  _404
REMARK  162  A    between atoms: _404  and  _405
REMARK  163  A    between atoms: _404  and  _407
REMARK  164  A    between atoms: _407  and  _408
REMARK                            x       y       z     vdW  Elec       q    Type
REMARK                         _______ _______ _______ _____ _____    ______ ____
ROOT
ATOM      1  O   HOH     1     -13.550  -1.818  -7.520  0.00  0.00    +0.000 OA
ENDROOT
TORSDOF 0
REMARK  Name = ../refined-set-2016/3ijh/3ijh_pocket.pdb
REMARK  164 active torsions:
REMARK  status: ('A' for Active; 'I' for Inactive)
REMARK    1  A    between atoms: _1  and  _3
REMARK    2  A    between atoms: _3  and  _4
REMARK    3  A    between atoms: _3  and  _6
REMARK    4  A    between atoms: _6  and  _7
REMARK    5  A    between atoms: _10  and  _12
REMARK    6  A    between atoms: _12  and  _13
REMARK    7  A    between atoms: _12  and  _15
REMARK    8  A    between atoms: _15  and  _16
REMARK    9  A    between atoms: _19  and  _21
REMARK   10  A    between atoms: _21  and  _22
REMARK   11  A    between atoms: _21  and  _24
REMARK   12  A    between atoms: _24  and  _25
REMARK   13  A    between atoms: _30  and  _32
REMARK   14  A    between atoms: _32  and  _33
REMARK   15  A    between atoms: _32  and  _35
REMARK   16  A    between atoms: _35  and  _36
REMARK   17  A    between atoms: _38  and  _40
REMARK   18  A    between atoms: _40  and  _41
REMARK   19  A    between atoms: _40  and  _43
REMARK   20  A    between atoms: _43  and  _44
REMARK   21  A    between atoms: _44  and  _45
REMARK   22  A    between atoms: _45  and  _46
REMARK   23  A    between atoms: _55  and  _57
REMARK   24  A    between atoms: _57  and  _58
REMARK   25  A    between atoms: _57  and  _60
REMARK   26  A    between atoms: _60  and  _61
REMARK   27  A    between atoms: _64  and  _66
REMARK   28  A    between atoms: _66  and  _67
REMARK   29  A    between atoms: _66  and  _69
REMARK   30  A    between atoms: _69  and  _70
REMARK   31  A    between atoms: _70  and  _71
REMARK   32  A    between atoms: _71  and  _72
REMARK   33  A    between atoms: _72  and  _73
REMARK   34  A    between atoms: _77  and  _79
REMARK   35  A    between atoms: _79  and  _80
REMARK   36  A    between atoms: _79  and  _82
REMARK   37  A    between atoms: _82  and  _83
REMARK   38  A    between atoms: _88  and  _89
REMARK   39  A    between atoms: _91  and  _93
REMARK   40  A    between atoms: _93  and  _94
REMARK   41  A    between atoms: _93  and  _96
REMARK   42  A    between atoms: _96  and  _97
REMARK   43  A    between atoms: _107  and  _109
REMARK   44  A    between atoms: _109  and  _110
REMARK   45  A    between atoms: _109  and  _112
REMARK   46  A    between atoms: _112  and  _113
REMARK   47  A    between atoms: _113  and  _114
REMARK   48  A    between atoms: _114  and  _115
REMARK   49  A    between atoms: _115  and  _116
REMARK   50  A    between atoms: _120  and  _122
REMARK   51  A    between atoms: _122  and  _123
REMARK   52  A    between atoms: _122  and  _125
REMARK   53  A    between atoms: _125  and  _126
REMARK   54  A    between atoms: _126  and  _127
REMARK   55  A    between atoms: _132  and  _134
REMARK   56  A    between atoms: _134  and  _135
REMARK   57  A    between atoms: _134  and  _137
REMARK   58  A    between atoms: _137  and  _138
REMARK   59  A    between atoms: _140  and  _142
REMARK   60  A    between atoms: _142  and  _143
REMARK   61  A    between atoms: _142  and  _145
REMARK   62  A    between atoms: _145  and  _146
REMARK   63  A    between atoms: _151  and  _153
REMARK   64  A    between atoms: _153  and  _154
REMARK   65  A    between atoms: _153  and  _156
REMARK   66  A    between atoms: _156  and  _157
REMARK   67  A    between atoms: _162  and  _164
REMARK   68  A    between atoms: _164  and  _165
REMARK   69  A    between atoms: _164  and  _167
REMARK   70  A    between atoms: _167  and  _168
REMARK   71  A    between atoms: _171  and  _173
REMARK   72  A    between atoms: _173  and  _174
REMARK   73  A    between atoms: _173  and  _176
REMARK   74  A    between atoms: _176  and  _177
REMARK   75  A    between atoms: _177  and  _178
REMARK   76  A    between atoms: _178  and  _179
REMARK   77  A    between atoms: _188  and  _190
REMARK   78  A    between atoms: _190  and  _191
REMARK   79  A    between atoms: _190  and  _193
REMARK   80  A    between atoms: _193  and  _194
REMARK   81  A    between atoms: _199  and  _200
REMARK   82  A    between atoms: _202  and  _204
REMARK   83  A    between atoms: _204  and  _205
REMARK   84  A    between atoms: _204  and  _207
REMARK   85  A    between atoms: _207  and  _208
REMARK   86  A    between atoms: _210  and  _212
REMARK   87  A    between atoms: _212  and  _213
REMARK   88  A    between atoms: _212  and  _215
REMARK   89  A    between atoms: _215  and  _216
REMARK   90  A    between atoms: _226  and  _228
REMARK   91  A    between atoms: _228  and  _229
REMARK   92  A    between atoms: _228  and  _231
REMARK   93  A    between atoms: _231  and  _232
REMARK   94  A    between atoms: _238  and  _240
REMARK   95  A    between atoms: _240  and  _241
REMARK   96  A    between atoms: _240  and  _243
REMARK   97  A    between atoms: _243  and  _244
REMARK   98  A    between atoms: _244  and  _245
REMARK   99  A    between atoms: _245  and  _246
REMARK  100  A    between atoms: _255  and  _257
REMARK  101  A    between atoms: _257  and  _258
REMARK  102  A    between atoms: _257  and  _260
REMARK  103  A    between atoms: _260  and  _261
REMARK  104  A    between atoms: _266  and  _268
REMARK  105  A    between atoms: _268  and  _269
REMARK  106  A    between atoms: _272  and  _274
REMARK  107  A    between atoms: _274  and  _275
REMARK  108  A    between atoms: _274  and  _277
REMARK  109  A    between atoms: _277  and  _278
REMARK  110  A    between atoms: _278  and  _279
REMARK  111  A    between atoms: _279  and  _280
REMARK  112  A    between atoms: _280  and  _281
REMARK  113  A    between atoms: _285  and  _287
REMARK  114  A    between atoms: _287  and  _288
REMARK  115  A    between atoms: _287  and  _290
REMARK  116  A    between atoms: _290  and  _291
REMARK  117  A    between atoms: _294  and  _296
REMARK  118  A    between atoms: _296  and  _297
REMARK  119  A    between atoms: _296  and  _299
REMARK  120  A    between atoms: _299  and  _300
REMARK  121  A    between atoms: _300  and  _301
REMARK  122  A    between atoms: _304  and  _306
REMARK  123  A    between atoms: _306  and  _307
REMARK  124  A    between atoms: _306  and  _309
REMARK  125  A    between atoms: _309  and  _310
REMARK  126  A    between atoms: _313  and  _315
REMARK  127  A    between atoms: _315  and  _316
REMARK  128  A    between atoms: _315  and  _318
REMARK  129  A    between atoms: _318  and  _319
REMARK  130  A    between atoms: _322  and  _324
REMARK  131  A    between atoms: _324  and  _325
REMARK  132  A    between atoms: _324  and  _327
REMARK  133  A    between atoms: _327  and  _328
REMARK  134  A    between atoms: _331  and  _332
REMARK  135  A    between atoms: _337  and  _339
REMARK  136  A    between atoms: _339  and  _340
REMARK  137  A    between atoms: _339  and  _342
REMARK  138  A    between atoms: _342  and  _343
REMARK  139  A    between atoms: _345  and  _347
REMARK  140  A    between atoms: _347  and  _348
REMARK  141  A    between atoms: _347  and  _350
REMARK  142  A    between atoms: _350  and  _351
REMARK  143  A    between atoms: _356  and  _357
REMARK  144  A    between atoms: _359  and  _361
REMARK  145  A    between atoms: _361  and  _362
REMARK  146  A    between atoms: _361  and  _364
REMARK  147  A    between atoms: _364  and  _365
REMARK  148  A    between atoms: _370  and  _371
REMARK  149  A    between atoms: _373  and  _375
REMARK  150  A    between atoms: _375  and  _376
REMARK  151  A    between atoms: _375  and  _378
REMARK  152  A    between atoms: _378  and  _379
REMARK  153  A    between atoms: _384  and  _385
REMARK  154  A    between atoms: _387  and  _389
REMARK  155  A    between atoms: _389  and  _390
REMARK  156  A    between atoms: _389  and  _392
REMARK  157  A    between atoms: _392  and  _393
REMARK  158  A    between atoms: _393  and  _394
REMARK  159  A    between atoms: _397  and  _399
REMARK  160  A    between atoms: _399  and  _400
REMARK  161  A    between atoms: _402  and  _404
REMARK  162  A    between atoms: _404  and  _405
REMARK  163  A    between atoms: _404  and  _407
REMARK  164  A    between atoms: _407  and  _408
REMARK                            x       y       z     vdW  Elec       q    Type
REMARK                         _______ _______ _______ _____ _____    ______ ____
ROOT
ATOM      1  O   HOH     1     -11.149   5.337   1.992  0.00  0.00    +0.000 OA
ENDROOT
TORSDOF 0
REMARK  Name = ../refined-set-2016/3ijh/3ijh_pocket.pdb
REMARK  164 active torsions:
REMARK  status: ('A' for Active; 'I' for Inactive)
REMARK    1  A    between atoms: _1  and  _3
REMARK    2  A    between atoms: _3  and  _4
REMARK    3  A    between atoms: _3  and  _6
REMARK    4  A    between atoms: _6  and  _7
REMARK    5  A    between atoms: _10  and  _12
REMARK    6  A    between atoms: _12  and  _13
REMARK    7  A    between atoms: _12  and  _15
REMARK    8  A    between atoms: _15  and  _16
REMARK    9  A    between atoms: _19  and  _21
REMARK   10  A    between atoms: _21  and  _22
REMARK   11  A    between atoms: _21  and  _24
REMARK   12  A    between atoms: _24  and  _25
REMARK   13  A    between atoms: _30  and  _32
REMARK   14  A    between atoms: _32  and  _33
REMARK   15  A    between atoms: _32  and  _35
REMARK   16  A    between atoms: _35  and  _36
REMARK   17  A    between atoms: _38  and  _40
REMARK   18  A    between atoms: _40  and  _41
REMARK   19  A    between atoms: _40  and  _43
REMARK   20  A    between atoms: _43  and  _44
REMARK   21  A    between atoms: _44  and  _45
REMARK   22  A    between atoms: _45  and  _46
REMARK   23  A    between atoms: _55  and  _57
REMARK   24  A    between atoms: _57  and  _58
REMARK   25  A    between atoms: _57  and  _60
REMARK   26  A    between atoms: _60  and  _61
REMARK   27  A    between atoms: _64  and  _66
REMARK   28  A    between atoms: _66  and  _67
REMARK   29  A    between atoms: _66  and  _69
REMARK   30  A    between atoms: _69  and  _70
REMARK   31  A    between atoms: _70  and  _71
REMARK   32  A    between atoms: _71  and  _72
REMARK   33  A    between atoms: _72  and  _73
REMARK   34  A    between atoms: _77  and  _79
REMARK   35  A    between atoms: _79  and  _80
REMARK   36  A    between atoms: _79  and  _82
REMARK   37  A    between atoms: _82  and  _83
REMARK   38  A    between atoms: _88  and  _89
REMARK   39  A    between atoms: _91  and  _93
REMARK   40  A    between atoms: _93  and  _94
REMARK   41  A    between atoms: _93  and  _96
REMARK   42  A    between atoms: _96  and  _97
REMARK   43  A    between atoms: _107  and  _109
REMARK   44  A    between atoms: _109  and  _110
REMARK   45  A    between atoms: _109  and  _112
REMARK   46  A    between atoms: _112  and  _113
REMARK   47  A    between atoms: _113  and  _114
REMARK   48  A    between atoms: _114  and  _115
REMARK   49  A    between atoms: _115  and  _116
REMARK   50  A    between atoms: _120  and  _122
REMARK   51  A    between atoms: _122  and  _123
REMARK   52  A    between atoms: _122  and  _125
REMARK   53  A    between atoms: _125  and  _126
REMARK   54  A    between atoms: _126  and  _127
REMARK   55  A    between atoms: _132  and  _134
REMARK   56  A    between atoms: _134  and  _135
REMARK   57  A    between atoms: _134  and  _137
REMARK   58  A    between atoms: _137  and  _138
REMARK   59  A    between atoms: _140  and  _142
REMARK   60  A    between atoms: _142  and  _143
REMARK   61  A    between atoms: _142  and  _145
REMARK   62  A    between atoms: _145  and  _146
REMARK   63  A    between atoms: _151  and  _153
REMARK   64  A    between atoms: _153  and  _154
REMARK   65  A    between atoms: _153  and  _156
REMARK   66  A    between atoms: _156  and  _157
REMARK   67  A    between atoms: _162  and  _164
REMARK   68  A    between atoms: _164  and  _165
REMARK   69  A    between atoms: _164  and  _167
REMARK   70  A    between atoms: _167  and  _168
REMARK   71  A    between atoms: _171  and  _173
REMARK   72  A    between atoms: _173  and  _174
REMARK   73  A    between atoms: _173  and  _176
REMARK   74  A    between atoms: _176  and  _177
REMARK   75  A    between atoms: _177  and  _178
REMARK   76  A    between atoms: _178  and  _179
REMARK   77  A    between atoms: _188  and  _190
REMARK   78  A    between atoms: _190  and  _191
REMARK   79  A    between atoms: _190  and  _193
REMARK   80  A    between atoms: _193  and  _194
REMARK   81  A    between atoms: _199  and  _200
REMARK   82  A    between atoms: _202  and  _204
REMARK   83  A    between atoms: _204  and  _205
REMARK   84  A    between atoms: _204  and  _207
REMARK   85  A    between atoms: _207  and  _208
REMARK   86  A    between atoms: _210  and  _212
REMARK   87  A    between atoms: _212  and  _213
REMARK   88  A    between atoms: _212  and  _215
REMARK   89  A    between atoms: _215  and  _216
REMARK   90  A    between atoms: _226  and  _228
REMARK   91  A    between atoms: _228  and  _229
REMARK   92  A    between atoms: _228  and  _231
REMARK   93  A    between atoms: _231  and  _232
REMARK   94  A    between atoms: _238  and  _240
REMARK   95  A    between atoms: _240  and  _241
REMARK   96  A    between atoms: _240  and  _243
REMARK   97  A    between atoms: _243  and  _244
REMARK   98  A    between atoms: _244  and  _245
REMARK   99  A    between atoms: _245  and  _246
REMARK  100  A    between atoms: _255  and  _257
REMARK  101  A    between atoms: _257  and  _258
REMARK  102  A    between atoms: _257  and  _260
REMARK  103  A    between atoms: _260  and  _261
REMARK  104  A    between atoms: _266  and  _268
REMARK  105  A    between atoms: _268  and  _269
REMARK  106  A    between atoms: _272  and  _274
REMARK  107  A    between atoms: _274  and  _275
REMARK  108  A    between atoms: _274  and  _277
REMARK  109  A    between atoms: _277  and  _278
REMARK  110  A    between atoms: _278  and  _279
REMARK  111  A    between atoms: _279  and  _280
REMARK  112  A    between atoms: _280  and  _281
REMARK  113  A    between atoms: _285  and  _287
REMARK  114  A    between atoms: _287  and  _288
REMARK  115  A    between atoms: _287  and  _290
REMARK  116  A    between atoms: _290  and  _291
REMARK  117  A    between atoms: _294  and  _296
REMARK  118  A    between atoms: _296  and  _297
REMARK  119  A    between atoms: _296  and  _299
REMARK  120  A    between atoms: _299  and  _300
REMARK  121  A    between atoms: _300  and  _301
REMARK  122  A    between atoms: _304  and  _306
REMARK  123  A    between atoms: _306  and  _307
REMARK  124  A    between atoms: _306  and  _309
REMARK  125  A    between atoms: _309  and  _310
REMARK  126  A    between atoms: _313  and  _315
REMARK  127  A    between atoms: _315  and  _316
REMARK  128  A    between atoms: _315  and  _318
REMARK  129  A    between atoms: _318  and  _319
REMARK  130  A    between atoms: _322  and  _324
REMARK  131  A    between atoms: _324  and  _325
REMARK  132  A    between atoms: _324  and  _327
REMARK  133  A    between atoms: _327  and  _328
REMARK  134  A    between atoms: _331  and  _332
REMARK  135  A    between atoms: _337  and  _339
REMARK  136  A    between atoms: _339  and  _340
REMARK  137  A    between atoms: _339  and  _342
REMARK  138  A    between atoms: _342  and  _343
REMARK  139  A    between atoms: _345  and  _347
REMARK  140  A    between atoms: _347  and  _348
REMARK  141  A    between atoms: _347  and  _350
REMARK  142  A    between atoms: _350  and  _351
REMARK  143  A    between atoms: _356  and  _357
REMARK  144  A    between atoms: _359  and  _361
REMARK  145  A    between atoms: _361  and  _362
REMARK  146  A    between atoms: _361  and  _364
REMARK  147  A    between atoms: _364  and  _365
REMARK  148  A    between atoms: _370  and  _371
REMARK  149  A    between atoms: _373  and  _375
REMARK  150  A    between atoms: _375  and  _376
REMARK  151  A    between atoms: _375  and  _378
REMARK  152  A    between atoms: _378  and  _379
REMARK  153  A    between atoms: _384  and  _385
REMARK  154  A    between atoms: _387  and  _389
REMARK  155  A    between atoms: _389  and  _390
REMARK  156  A    between atoms: _389  and  _392
REMARK  157  A    between atoms: _392  and  _393
REMARK  158  A    between atoms: _393  and  _394
REMARK  159  A    between atoms: _397  and  _399
REMARK  160  A    between atoms: _399  and  _400
REMARK  161  A    between atoms: _402  and  _404
REMARK  162  A    between atoms: _404  and  _405
REMARK  163  A    between atoms: _404  and  _407
REMARK  164  A    between atoms: _407  and  _408
REMARK                            x       y       z     vdW  Elec       q    Type
REMARK                         _______ _______ _______ _____ _____    ______ ____
ROOT
ATOM      1  O   HOH     1      -8.090   4.964  -1.672  0.00  0.00    +0.000 OA
ENDROOT
TORSDOF 0
