REMARK  Name = ../refined-set-2016/4uac/4uac_pocket.pdb
REMARK  256 active torsions:
REMARK  status: ('A' for Active; 'I' for Inactive)
REMARK    1  A    between atoms: _1  and  _3
REMARK    2  A    between atoms: _3  and  _4
REMARK    3  A    between atoms: _7  and  _8
REMARK    4  A    between atoms: _13  and  _15
REMARK    5  A    between atoms: _15  and  _16
REMARK    6  A    between atoms: _19  and  _21
REMARK    7  A    between atoms: _21  and  _22
REMARK    8  A    between atoms: _21  and  _24
REMARK    9  A    between atoms: _24  and  _25
REMARK   10  A    between atoms: _25  and  _26
REMARK   11  A    between atoms: _29  and  _31
REMARK   12  A    between atoms: _31  and  _32
REMARK   13  A    between atoms: _31  and  _34
REMARK   14  A    between atoms: _34  and  _35
REMARK   15  A    between atoms: _38  and  _40
REMARK   16  A    between atoms: _40  and  _41
REMARK   17  A    between atoms: _40  and  _43
REMARK   18  A    between atoms: _43  and  _44
REMARK   19  A    between atoms: _46  and  _48
REMARK   20  A    between atoms: _48  and  _49
REMARK   21  A    between atoms: _48  and  _51
REMARK   22  A    between atoms: _51  and  _52
REMARK   23  A    between atoms: _54  and  _56
REMARK   24  A    between atoms: _56  and  _57
REMARK   25  A    between atoms: _56  and  _59
REMARK   26  A    between atoms: _59  and  _60
REMARK   27  A    between atoms: _60  and  _61
REMARK   28  A    between atoms: _64  and  _66
REMARK   29  A    between atoms: _66  and  _67
REMARK   30  A    between atoms: _66  and  _69
REMARK   31  A    between atoms: _69  and  _70
REMARK   32  A    between atoms: _72  and  _74
REMARK   33  A    between atoms: _74  and  _75
REMARK   34  A    between atoms: _74  and  _77
REMARK   35  A    between atoms: _77  and  _78
REMARK   36  A    between atoms: _81  and  _83
REMARK   37  A    between atoms: _83  and  _84
REMARK   38  A    between atoms: _87  and  _89
REMARK   39  A    between atoms: _89  and  _90
REMARK   40  A    between atoms: _89  and  _92
REMARK   41  A    between atoms: _92  and  _93
REMARK   42  A    between atoms: _93  and  _94
REMARK   43  A    between atoms: _94  and  _95
REMARK   44  A    between atoms: _95  and  _96
REMARK   45  A    between atoms: _100  and  _102
REMARK   46  A    between atoms: _102  and  _103
REMARK   47  A    between atoms: _102  and  _105
REMARK   48  A    between atoms: _105  and  _106
REMARK   49  A    between atoms: _109  and  _111
REMARK   50  A    between atoms: _111  and  _112
REMARK   51  A    between atoms: _111  and  _114
REMARK   52  A    between atoms: _117  and  _119
REMARK   53  A    between atoms: _119  and  _120
REMARK   54  A    between atoms: _119  and  _122
REMARK   55  A    between atoms: _122  and  _123
REMARK   56  A    between atoms: _126  and  _128
REMARK   57  A    between atoms: _128  and  _129
REMARK   58  A    between atoms: _128  and  _131
REMARK   59  A    between atoms: _131  and  _132
REMARK   60  A    between atoms: _132  and  _133
REMARK   61  A    between atoms: _135  and  _137
REMARK   62  A    between atoms: _137  and  _138
REMARK   63  A    between atoms: _137  and  _140
REMARK   64  A    between atoms: _140  and  _141
REMARK   65  A    between atoms: _147  and  _149
REMARK   66  A    between atoms: _149  and  _150
REMARK   67  A    between atoms: _153  and  _155
REMARK   68  A    between atoms: _155  and  _156
REMARK   69  A    between atoms: _155  and  _158
REMARK   70  A    between atoms: _158  and  _159
REMARK   71  A    between atoms: _164  and  _166
REMARK   72  A    between atoms: _166  and  _167
REMARK   73  A    between atoms: _166  and  _169
REMARK   74  A    between atoms: _169  and  _170
REMARK   75  A    between atoms: _173  and  _175
REMARK   76  A    between atoms: _175  and  _176
REMARK   77  A    between atoms: _175  and  _178
REMARK   78  A    between atoms: _178  and  _179
REMARK   79  A    between atoms: _179  and  _180
REMARK   80  A    between atoms: _185  and  _187
REMARK   81  A    between atoms: _187  and  _188
REMARK   82  A    between atoms: _187  and  _190
REMARK   83  A    between atoms: _190  and  _191
REMARK   84  A    between atoms: _195  and  _196
REMARK   85  A    between atoms: _201  and  _203
REMARK   86  A    between atoms: _203  and  _204
REMARK   87  A    between atoms: _203  and  _206
REMARK   88  A    between atoms: _206  and  _207
REMARK   89  A    between atoms: _212  and  _213
REMARK   90  A    between atoms: _215  and  _217
REMARK   91  A    between atoms: _217  and  _218
REMARK   92  A    between atoms: _217  and  _220
REMARK   93  A    between atoms: _220  and  _221
REMARK   94  A    between atoms: _224  and  _226
REMARK   95  A    between atoms: _226  and  _227
REMARK   96  A    between atoms: _226  and  _229
REMARK   97  A    between atoms: _229  and  _230
REMARK   98  A    between atoms: _232  and  _234
REMARK   99  A    between atoms: _234  and  _235
REMARK  100  A    between atoms: _234  and  _237
REMARK  101  A    between atoms: _237  and  _238
REMARK  102  A    between atoms: _243  and  _245
REMARK  103  A    between atoms: _245  and  _246
REMARK  104  A    between atoms: _245  and  _248
REMARK  105  A    between atoms: _248  and  _249
REMARK  106  A    between atoms: _252  and  _254
REMARK  107  A    between atoms: _254  and  _255
REMARK  108  A    between atoms: _254  and  _257
REMARK  109  A    between atoms: _257  and  _258
REMARK  110  A    between atoms: _269  and  _270
REMARK  111  A    between atoms: _275  and  _277
REMARK  112  A    between atoms: _277  and  _278
REMARK  113  A    between atoms: _277  and  _280
REMARK  114  A    between atoms: _280  and  _281
REMARK  115  A    between atoms: _284  and  _286
REMARK  116  A    between atoms: _286  and  _287
REMARK  117  A    between atoms: _286  and  _289
REMARK  118  A    between atoms: _289  and  _290
REMARK  119  A    between atoms: _295  and  _297
REMARK  120  A    between atoms: _297  and  _298
REMARK  121  A    between atoms: _300  and  _302
REMARK  122  A    between atoms: _302  and  _303
REMARK  123  A    between atoms: _302  and  _305
REMARK  124  A    between atoms: _305  and  _306
REMARK  125  A    between atoms: _316  and  _318
REMARK  126  A    between atoms: _318  and  _319
REMARK  127  A    between atoms: _318  and  _321
REMARK  128  A    between atoms: _321  and  _322
REMARK  129  A    between atoms: _327  and  _328
REMARK  130  A    between atoms: _330  and  _332
REMARK  131  A    between atoms: _332  and  _333
REMARK  132  A    between atoms: _332  and  _335
REMARK  133  A    between atoms: _335  and  _336
REMARK  134  A    between atoms: _339  and  _341
REMARK  135  A    between atoms: _341  and  _342
REMARK  136  A    between atoms: _341  and  _344
REMARK  137  A    between atoms: _344  and  _345
REMARK  138  A    between atoms: _350  and  _352
REMARK  139  A    between atoms: _352  and  _353
REMARK  140  A    between atoms: _352  and  _355
REMARK  141  A    between atoms: _355  and  _356
REMARK  142  A    between atoms: _361  and  _363
REMARK  143  A    between atoms: _363  and  _364
REMARK  144  A    between atoms: _363  and  _366
REMARK  145  A    between atoms: _366  and  _367
REMARK  146  A    between atoms: _367  and  _368
REMARK  147  A    between atoms: _371  and  _373
REMARK  148  A    between atoms: _373  and  _374
REMARK  149  A    between atoms: _376  and  _378
REMARK  150  A    between atoms: _378  and  _379
REMARK  151  A    between atoms: _378  and  _381
REMARK  152  A    between atoms: _381  and  _382
REMARK  153  A    between atoms: _384  and  _386
REMARK  154  A    between atoms: _386  and  _387
REMARK  155  A    between atoms: _386  and  _389
REMARK  156  A    between atoms: _389  and  _390
REMARK  157  A    between atoms: _395  and  _396
REMARK  158  A    between atoms: _398  and  _400
REMARK  159  A    between atoms: _400  and  _401
REMARK  160  A    between atoms: _400  and  _403
REMARK  161  A    between atoms: _403  and  _404
REMARK  162  A    between atoms: _409  and  _411
REMARK  163  A    between atoms: _411  and  _412
REMARK  164  A    between atoms: _414  and  _416
REMARK  165  A    between atoms: _416  and  _417
REMARK  166  A    between atoms: _416  and  _419
REMARK  167  A    between atoms: _419  and  _420
REMARK  168  A    between atoms: _425  and  _427
REMARK  169  A    between atoms: _427  and  _428
REMARK  170  A    between atoms: _427  and  _430
REMARK  171  A    between atoms: _430  and  _431
REMARK  172  A    between atoms: _441  and  _443
REMARK  173  A    between atoms: _443  and  _444
REMARK  174  A    between atoms: _443  and  _446
REMARK  175  A    between atoms: _446  and  _447
REMARK  176  A    between atoms: _452  and  _454
REMARK  177  A    between atoms: _454  and  _455
REMARK  178  A    between atoms: _454  and  _457
REMARK  179  A    between atoms: _457  and  _458
REMARK  180  A    between atoms: _458  and  _459
REMARK  181  A    between atoms: _459  and  _460
REMARK  182  A    between atoms: _460  and  _461
REMARK  183  A    between atoms: _465  and  _467
REMARK  184  A    between atoms: _467  and  _468
REMARK  185  A    between atoms: _467  and  _470
REMARK  186  A    between atoms: _470  and  _471
REMARK  187  A    between atoms: _477  and  _479
REMARK  188  A    between atoms: _479  and  _480
REMARK  189  A    between atoms: _482  and  _484
REMARK  190  A    between atoms: _484  and  _485
REMARK  191  A    between atoms: _484  and  _487
REMARK  192  A    between atoms: _487  and  _488
REMARK  193  A    between atoms: _490  and  _492
REMARK  194  A    between atoms: _492  and  _493
REMARK  195  A    between atoms: _492  and  _495
REMARK  196  A    between atoms: _495  and  _496
REMARK  197  A    between atoms: _496  and  _497
REMARK  198  A    between atoms: _497  and  _498
REMARK  199  A    between atoms: _498  and  _499
REMARK  200  A    between atoms: _503  and  _505
REMARK  201  A    between atoms: _505  and  _506
REMARK  202  A    between atoms: _505  and  _508
REMARK  203  A    between atoms: _508  and  _509
REMARK  204  A    between atoms: _514  and  _516
REMARK  205  A    between atoms: _516  and  _517
REMARK  206  A    between atoms: _516  and  _519
REMARK  207  A    between atoms: _519  and  _520
REMARK  208  A    between atoms: _520  and  _521
REMARK  209  A    between atoms: _521  and  _522
REMARK  210  A    between atoms: _531  and  _533
REMARK  211  A    between atoms: _533  and  _534
REMARK  212  A    between atoms: _533  and  _536
REMARK  213  A    between atoms: _536  and  _537
REMARK  214  A    between atoms: _537  and  _538
REMARK  215  A    between atoms: _543  and  _545
REMARK  216  A    between atoms: _545  and  _546
REMARK  217  A    between atoms: _545  and  _548
REMARK  218  A    between atoms: _548  and  _549
REMARK  219  A    between atoms: _549  and  _550
REMARK  220  A    between atoms: _555  and  _557
REMARK  221  A    between atoms: _557  and  _558
REMARK  222  A    between atoms: _557  and  _560
REMARK  223  A    between atoms: _560  and  _561
REMARK  224  A    between atoms: _564  and  _566
REMARK  225  A    between atoms: _566  and  _567
REMARK  226  A    between atoms: _566  and  _569
REMARK  227  A    between atoms: _569  and  _570
REMARK  228  A    between atoms: _570  and  _571
REMARK  229  A    between atoms: _573  and  _575
REMARK  230  A    between atoms: _575  and  _576
REMARK  231  A    between atoms: _575  and  _578
REMARK  232  A    between atoms: _578  and  _579
REMARK  233  A    between atoms: _581  and  _583
REMARK  234  A    between atoms: _583  and  _584
REMARK  235  A    between atoms: _586  and  _588
REMARK  236  A    between atoms: _588  and  _589
REMARK  237  A    between atoms: _588  and  _591
REMARK  238  A    between atoms: _591  and  _592
REMARK  239  A    between atoms: _597  and  _598
REMARK  240  A    between atoms: _600  and  _602
REMARK  241  A    between atoms: _602  and  _603
REMARK  242  A    between atoms: _602  and  _605
REMARK  243  A    between atoms: _605  and  _606
REMARK  244  A    between atoms: _616  and  _618
REMARK  245  A    between atoms: _618  and  _619
REMARK  246  A    between atoms: _618  and  _621
REMARK  247  A    between atoms: _621  and  _622
REMARK  248  A    between atoms: _625  and  _627
REMARK  249  A    between atoms: _627  and  _628
REMARK  250  A    between atoms: _631  and  _633
REMARK  251  A    between atoms: _633  and  _634
REMARK  252  A    between atoms: _637  and  _639
REMARK  253  A    between atoms: _639  and  _640
REMARK  254  A    between atoms: _639  and  _642
REMARK  255  A    between atoms: _642  and  _643
REMARK  256  A    between atoms: _647  and  _648
REMARK                            x       y       z     vdW  Elec       q    Type
REMARK                         _______ _______ _______ _____ _____    ______ ____
ROOT
ATOM      1  C   ALA A   3      41.887  65.112  28.619  0.00  0.00    +0.241 C 
ATOM      2  O   ALA A   3      43.086  65.358  28.834  0.00  0.00    -0.273 OA
ATOM      3  N   GLU A   4      41.417  64.740  27.431  0.00  0.00    -0.297 N 
ATOM      4  H   GLU A   4      40.393  64.608  27.310  0.00  0.00    +0.150 HD
ENDROOT
BRANCH   1   5
ATOM      5  CA  ALA A   3      40.861  65.244  29.736  0.00  0.00    +0.149 C 
ATOM      6  CB  ALA A   3      40.552  63.865  30.326  0.00  0.00    +0.031 C 
BRANCH   5   8
ATOM      7  C   PRO A   2      39.607  67.022  28.611  0.00  0.00    +0.241 C 
ATOM      8  N   ALA A   3      39.624  65.872  29.284  0.00  0.00    -0.297 N 
ATOM      9  H   ALA A   3      38.720  65.404  29.495  0.00  0.00    +0.150 HD
ATOM     10  O   PRO A   2      40.615  67.619  28.257  0.00  0.00    -0.273 OA
BRANCH   7  14
ATOM     11  C   GLY A   1      38.351  69.858  29.037  0.00  0.00    +0.243 C 
ATOM     12  O   GLY A   1      38.582  69.475  30.182  0.00  0.00    -0.273 OA
ATOM     13  N   PRO A   2      38.245  69.017  28.020  0.00  0.00    -0.272 N 
ATOM     14  CA  PRO A   2      38.230  67.579  28.299  0.00  0.00    +0.152 C 
ATOM     15  CB  PRO A   2      37.673  66.974  27.017  0.00  0.00    +0.031 C 
ATOM     16  CG  PRO A   2      38.012  67.988  25.930  0.00  0.00    +0.024 C 
ATOM     17  CD  PRO A   2      37.920  69.326  26.611  0.00  0.00    +0.094 C 
BRANCH  11  18
ATOM     18  CA  GLY A   1      38.167  71.324  28.736  0.00  0.00    +0.170 C 
BRANCH  18  19
ATOM     19  N   GLY A   1      38.223  72.153  29.928  0.00  0.00    -0.236 NA
ATOM     20  H   GLY A   1      38.681  71.765  30.777  0.00  0.00    +0.142 HD
ENDBRANCH  18  19
ENDBRANCH  11  18
ENDBRANCH   7  14
ENDBRANCH   5   8
ENDBRANCH   1   5
BRANCH   3  21
ATOM     21  CA  GLU A   4      42.300  64.513  26.297  0.00  0.00    +0.149 C 
BRANCH  21  22
ATOM     22  C   GLU A   4      43.056  65.774  25.881  0.00  0.00    +0.241 C 
ATOM     23  N   ASP A   5      42.470  66.943  26.102  0.00  0.00    -0.298 N 
ATOM     24  H   ASP A   5      41.525  66.962  26.536  0.00  0.00    +0.150 HD
ATOM     25  O   GLU A   4      44.161  65.683  25.369  0.00  0.00    -0.273 OA
BRANCH  23  26
ATOM     26  CA  ASP A   5      43.120  68.208  25.750  0.00  0.00    +0.148 C 
BRANCH  26  27
ATOM     27  C   ASP A   5      44.072  68.675  26.846  0.00  0.00    +0.227 C 
ATOM     28  O   ASP A   5      44.788  69.661  26.664  0.00  0.00    -0.286 OA
ENDBRANCH  26  27
BRANCH  26  29
ATOM     29  CB  ASP A   5      42.076  69.298  25.483  0.00  0.00    +0.142 C 
BRANCH  29  30
ATOM     30  CG  ASP A   5      41.383  69.134  24.136  0.00  0.00    +0.367 C 
ATOM     31  OD2 ASP A   5      40.219  69.555  24.018  0.00  0.00    -0.246 OA
ATOM     32  OD1 ASP A   5      42.000  68.582  23.214  0.00  0.00    -0.246 OA
ENDBRANCH  29  30
ENDBRANCH  26  29
ENDBRANCH  23  26
ENDBRANCH  21  22
BRANCH  21  33
ATOM     33  CB  GLU A   4      41.499  63.971  25.105  0.00  0.00    +0.041 C 
BRANCH  33  34
ATOM     34  CG  GLU A   4      40.864  62.588  25.336  0.00  0.00    +0.116 C 
BRANCH  34  35
ATOM     35  CD  GLU A   4      39.500  62.613  26.033  0.00  0.00    +0.365 C 
ATOM     36  OE2 GLU A   4      38.984  63.689  26.414  0.00  0.00    -0.246 OA
ATOM     37  OE1 GLU A   4      38.935  61.510  26.201  0.00  0.00    -0.246 OA
ENDBRANCH  34  35
ENDBRANCH  33  34
ENDBRANCH  21  33
ENDBRANCH   3  21
TORSDOF 14
REMARK  Name = ../refined-set-2016/4uac/4uac_pocket.pdb
REMARK  256 active torsions:
REMARK  status: ('A' for Active; 'I' for Inactive)
REMARK    1  A    between atoms: _1  and  _3
REMARK    2  A    between atoms: _3  and  _4
REMARK    3  A    between atoms: _7  and  _8
REMARK    4  A    between atoms: _13  and  _15
REMARK    5  A    between atoms: _15  and  _16
REMARK    6  A    between atoms: _19  and  _21
REMARK    7  A    between atoms: _21  and  _22
REMARK    8  A    between atoms: _21  and  _24
REMARK    9  A    between atoms: _24  and  _25
REMARK   10  A    between atoms: _25  and  _26
REMARK   11  A    between atoms: _29  and  _31
REMARK   12  A    between atoms: _31  and  _32
REMARK   13  A    between atoms: _31  and  _34
REMARK   14  A    between atoms: _34  and  _35
REMARK   15  A    between atoms: _38  and  _40
REMARK   16  A    between atoms: _40  and  _41
REMARK   17  A    between atoms: _40  and  _43
REMARK   18  A    between atoms: _43  and  _44
REMARK   19  A    between atoms: _46  and  _48
REMARK   20  A    between atoms: _48  and  _49
REMARK   21  A    between atoms: _48  and  _51
REMARK   22  A    between atoms: _51  and  _52
REMARK   23  A    between atoms: _54  and  _56
REMARK   24  A    between atoms: _56  and  _57
REMARK   25  A    between atoms: _56  and  _59
REMARK   26  A    between atoms: _59  and  _60
REMARK   27  A    between atoms: _60  and  _61
REMARK   28  A    between atoms: _64  and  _66
REMARK   29  A    between atoms: _66  and  _67
REMARK   30  A    between atoms: _66  and  _69
REMARK   31  A    between atoms: _69  and  _70
REMARK   32  A    between atoms: _72  and  _74
REMARK   33  A    between atoms: _74  and  _75
REMARK   34  A    between atoms: _74  and  _77
REMARK   35  A    between atoms: _77  and  _78
REMARK   36  A    between atoms: _81  and  _83
REMARK   37  A    between atoms: _83  and  _84
REMARK   38  A    between atoms: _87  and  _89
REMARK   39  A    between atoms: _89  and  _90
REMARK   40  A    between atoms: _89  and  _92
REMARK   41  A    between atoms: _92  and  _93
REMARK   42  A    between atoms: _93  and  _94
REMARK   43  A    between atoms: _94  and  _95
REMARK   44  A    between atoms: _95  and  _96
REMARK   45  A    between atoms: _100  and  _102
REMARK   46  A    between atoms: _102  and  _103
REMARK   47  A    between atoms: _102  and  _105
REMARK   48  A    between atoms: _105  and  _106
REMARK   49  A    between atoms: _109  and  _111
REMARK   50  A    between atoms: _111  and  _112
REMARK   51  A    between atoms: _111  and  _114
REMARK   52  A    between atoms: _117  and  _119
REMARK   53  A    between atoms: _119  and  _120
REMARK   54  A    between atoms: _119  and  _122
REMARK   55  A    between atoms: _122  and  _123
REMARK   56  A    between atoms: _126  and  _128
REMARK   57  A    between atoms: _128  and  _129
REMARK   58  A    between atoms: _128  and  _131
REMARK   59  A    between atoms: _131  and  _132
REMARK   60  A    between atoms: _132  and  _133
REMARK   61  A    between atoms: _135  and  _137
REMARK   62  A    between atoms: _137  and  _138
REMARK   63  A    between atoms: _137  and  _140
REMARK   64  A    between atoms: _140  and  _141
REMARK   65  A    between atoms: _147  and  _149
REMARK   66  A    between atoms: _149  and  _150
REMARK   67  A    between atoms: _153  and  _155
REMARK   68  A    between atoms: _155  and  _156
REMARK   69  A    between atoms: _155  and  _158
REMARK   70  A    between atoms: _158  and  _159
REMARK   71  A    between atoms: _164  and  _166
REMARK   72  A    between atoms: _166  and  _167
REMARK   73  A    between atoms: _166  and  _169
REMARK   74  A    between atoms: _169  and  _170
REMARK   75  A    between atoms: _173  and  _175
REMARK   76  A    between atoms: _175  and  _176
REMARK   77  A    between atoms: _175  and  _178
REMARK   78  A    between atoms: _178  and  _179
REMARK   79  A    between atoms: _179  and  _180
REMARK   80  A    between atoms: _185  and  _187
REMARK   81  A    between atoms: _187  and  _188
REMARK   82  A    between atoms: _187  and  _190
REMARK   83  A    between atoms: _190  and  _191
REMARK   84  A    between atoms: _195  and  _196
REMARK   85  A    between atoms: _201  and  _203
REMARK   86  A    between atoms: _203  and  _204
REMARK   87  A    between atoms: _203  and  _206
REMARK   88  A    between atoms: _206  and  _207
REMARK   89  A    between atoms: _212  and  _213
REMARK   90  A    between atoms: _215  and  _217
REMARK   91  A    between atoms: _217  and  _218
REMARK   92  A    between atoms: _217  and  _220
REMARK   93  A    between atoms: _220  and  _221
REMARK   94  A    between atoms: _224  and  _226
REMARK   95  A    between atoms: _226  and  _227
REMARK   96  A    between atoms: _226  and  _229
REMARK   97  A    between atoms: _229  and  _230
REMARK   98  A    between atoms: _232  and  _234
REMARK   99  A    between atoms: _234  and  _235
REMARK  100  A    between atoms: _234  and  _237
REMARK  101  A    between atoms: _237  and  _238
REMARK  102  A    between atoms: _243  and  _245
REMARK  103  A    between atoms: _245  and  _246
REMARK  104  A    between atoms: _245  and  _248
REMARK  105  A    between atoms: _248  and  _249
REMARK  106  A    between atoms: _252  and  _254
REMARK  107  A    between atoms: _254  and  _255
REMARK  108  A    between atoms: _254  and  _257
REMARK  109  A    between atoms: _257  and  _258
REMARK  110  A    between atoms: _269  and  _270
REMARK  111  A    between atoms: _275  and  _277
REMARK  112  A    between atoms: _277  and  _278
REMARK  113  A    between atoms: _277  and  _280
REMARK  114  A    between atoms: _280  and  _281
REMARK  115  A    between atoms: _284  and  _286
REMARK  116  A    between atoms: _286  and  _287
REMARK  117  A    between atoms: _286  and  _289
REMARK  118  A    between atoms: _289  and  _290
REMARK  119  A    between atoms: _295  and  _297
REMARK  120  A    between atoms: _297  and  _298
REMARK  121  A    between atoms: _300  and  _302
REMARK  122  A    between atoms: _302  and  _303
REMARK  123  A    between atoms: _302  and  _305
REMARK  124  A    between atoms: _305  and  _306
REMARK  125  A    between atoms: _316  and  _318
REMARK  126  A    between atoms: _318  and  _319
REMARK  127  A    between atoms: _318  and  _321
REMARK  128  A    between atoms: _321  and  _322
REMARK  129  A    between atoms: _327  and  _328
REMARK  130  A    between atoms: _330  and  _332
REMARK  131  A    between atoms: _332  and  _333
REMARK  132  A    between atoms: _332  and  _335
REMARK  133  A    between atoms: _335  and  _336
REMARK  134  A    between atoms: _339  and  _341
REMARK  135  A    between atoms: _341  and  _342
REMARK  136  A    between atoms: _341  and  _344
REMARK  137  A    between atoms: _344  and  _345
REMARK  138  A    between atoms: _350  and  _352
REMARK  139  A    between atoms: _352  and  _353
REMARK  140  A    between atoms: _352  and  _355
REMARK  141  A    between atoms: _355  and  _356
REMARK  142  A    between atoms: _361  and  _363
REMARK  143  A    between atoms: _363  and  _364
REMARK  144  A    between atoms: _363  and  _366
REMARK  145  A    between atoms: _366  and  _367
REMARK  146  A    between atoms: _367  and  _368
REMARK  147  A    between atoms: _371  and  _373
REMARK  148  A    between atoms: _373  and  _374
REMARK  149  A    between atoms: _376  and  _378
REMARK  150  A    between atoms: _378  and  _379
REMARK  151  A    between atoms: _378  and  _381
REMARK  152  A    between atoms: _381  and  _382
REMARK  153  A    between atoms: _384  and  _386
REMARK  154  A    between atoms: _386  and  _387
REMARK  155  A    between atoms: _386  and  _389
REMARK  156  A    between atoms: _389  and  _390
REMARK  157  A    between atoms: _395  and  _396
REMARK  158  A    between atoms: _398  and  _400
REMARK  159  A    between atoms: _400  and  _401
REMARK  160  A    between atoms: _400  and  _403
REMARK  161  A    between atoms: _403  and  _404
REMARK  162  A    between atoms: _409  and  _411
REMARK  163  A    between atoms: _411  and  _412
REMARK  164  A    between atoms: _414  and  _416
REMARK  165  A    between atoms: _416  and  _417
REMARK  166  A    between atoms: _416  and  _419
REMARK  167  A    between atoms: _419  and  _420
REMARK  168  A    between atoms: _425  and  _427
REMARK  169  A    between atoms: _427  and  _428
REMARK  170  A    between atoms: _427  and  _430
REMARK  171  A    between atoms: _430  and  _431
REMARK  172  A    between atoms: _441  and  _443
REMARK  173  A    between atoms: _443  and  _444
REMARK  174  A    between atoms: _443  and  _446
REMARK  175  A    between atoms: _446  and  _447
REMARK  176  A    between atoms: _452  and  _454
REMARK  177  A    between atoms: _454  and  _455
REMARK  178  A    between atoms: _454  and  _457
REMARK  179  A    between atoms: _457  and  _458
REMARK  180  A    between atoms: _458  and  _459
REMARK  181  A    between atoms: _459  and  _460
REMARK  182  A    between atoms: _460  and  _461
REMARK  183  A    between atoms: _465  and  _467
REMARK  184  A    between atoms: _467  and  _468
REMARK  185  A    between atoms: _467  and  _470
REMARK  186  A    between atoms: _470  and  _471
REMARK  187  A    between atoms: _477  and  _479
REMARK  188  A    between atoms: _479  and  _480
REMARK  189  A    between atoms: _482  and  _484
REMARK  190  A    between atoms: _484  and  _485
REMARK  191  A    between atoms: _484  and  _487
REMARK  192  A    between atoms: _487  and  _488
REMARK  193  A    between atoms: _490  and  _492
REMARK  194  A    between atoms: _492  and  _493
REMARK  195  A    between atoms: _492  and  _495
REMARK  196  A    between atoms: _495  and  _496
REMARK  197  A    between atoms: _496  and  _497
REMARK  198  A    between atoms: _497  and  _498
REMARK  199  A    between atoms: _498  and  _499
REMARK  200  A    between atoms: _503  and  _505
REMARK  201  A    between atoms: _505  and  _506
REMARK  202  A    between atoms: _505  and  _508
REMARK  203  A    between atoms: _508  and  _509
REMARK  204  A    between atoms: _514  and  _516
REMARK  205  A    between atoms: _516  and  _517
REMARK  206  A    between atoms: _516  and  _519
REMARK  207  A    between atoms: _519  and  _520
REMARK  208  A    between atoms: _520  and  _521
REMARK  209  A    between atoms: _521  and  _522
REMARK  210  A    between atoms: _531  and  _533
REMARK  211  A    between atoms: _533  and  _534
REMARK  212  A    between atoms: _533  and  _536
REMARK  213  A    between atoms: _536  and  _537
REMARK  214  A    between atoms: _537  and  _538
REMARK  215  A    between atoms: _543  and  _545
REMARK  216  A    between atoms: _545  and  _546
REMARK  217  A    between atoms: _545  and  _548
REMARK  218  A    between atoms: _548  and  _549
REMARK  219  A    between atoms: _549  and  _550
REMARK  220  A    between atoms: _555  and  _557
REMARK  221  A    between atoms: _557  and  _558
REMARK  222  A    between atoms: _557  and  _560
REMARK  223  A    between atoms: _560  and  _561
REMARK  224  A    between atoms: _564  and  _566
REMARK  225  A    between atoms: _566  and  _567
REMARK  226  A    between atoms: _566  and  _569
REMARK  227  A    between atoms: _569  and  _570
REMARK  228  A    between atoms: _570  and  _571
REMARK  229  A    between atoms: _573  and  _575
REMARK  230  A    between atoms: _575  and  _576
REMARK  231  A    between atoms: _575  and  _578
REMARK  232  A    between atoms: _578  and  _579
REMARK  233  A    between atoms: _581  and  _583
REMARK  234  A    between atoms: _583  and  _584
REMARK  235  A    between atoms: _586  and  _588
REMARK  236  A    between atoms: _588  and  _589
REMARK  237  A    between atoms: _588  and  _591
REMARK  238  A    between atoms: _591  and  _592
REMARK  239  A    between atoms: _597  and  _598
REMARK  240  A    between atoms: _600  and  _602
REMARK  241  A    between atoms: _602  and  _603
REMARK  242  A    between atoms: _602  and  _605
REMARK  243  A    between atoms: _605  and  _606
REMARK  244  A    between atoms: _616  and  _618
REMARK  245  A    between atoms: _618  and  _619
REMARK  246  A    between atoms: _618  and  _621
REMARK  247  A    between atoms: _621  and  _622
REMARK  248  A    between atoms: _625  and  _627
REMARK  249  A    between atoms: _627  and  _628
REMARK  250  A    between atoms: _631  and  _633
REMARK  251  A    between atoms: _633  and  _634
REMARK  252  A    between atoms: _637  and  _639
REMARK  253  A    between atoms: _639  and  _640
REMARK  254  A    between atoms: _639  and  _642
REMARK  255  A    between atoms: _642  and  _643
REMARK  256  A    between atoms: _647  and  _648
REMARK                            x       y       z     vdW  Elec       q    Type
REMARK                         _______ _______ _______ _____ _____    ______ ____
ROOT
ATOM      1  CA  ASP A   5      28.945  67.753  30.673  0.00  0.00    +0.160 C 
ENDROOT
BRANCH   1   2
ATOM      2  C   ASP A   5      29.017  69.236  31.034  0.00  0.00    +0.241 C 
ATOM      3  O   ASP A   5      28.678  69.618  32.149  0.00  0.00    -0.273 OA
ATOM      4  N   ALA A   6      29.452  70.086  30.104  0.00  0.00    -0.297 N 
ATOM      5  H   ALA A   6      29.619  69.752  29.133  0.00  0.00    +0.150 HD
BRANCH   4   6
ATOM      6  CA  ALA A   6      29.695  71.485  30.445  0.00  0.00    +0.149 C 
ATOM      7  CB  ALA A   6      30.293  72.205  29.224  0.00  0.00    +0.031 C 
BRANCH   6   8
ATOM      8  C   ALA A   6      28.477  72.234  30.957  0.00  0.00    +0.241 C 
ATOM      9  O   ALA A   6      28.594  73.008  31.909  0.00  0.00    -0.273 OA
ATOM     10  N   LYS A   7      27.315  72.019  30.360  0.00  0.00    -0.297 N 
ATOM     11  H   LYS A   7      27.279  71.376  29.543  0.00  0.00    +0.150 HD
BRANCH  10  12
ATOM     12  CA  LYS A   7      26.088  72.653  30.811  0.00  0.00    +0.149 C 
BRANCH  12  13
ATOM     13  C   LYS A   7      25.858  72.348  32.286  0.00  0.00    +0.241 C 
ATOM     14  O   LYS A   7      25.589  73.260  33.075  0.00  0.00    -0.273 OA
ATOM     15  N   ASP A   8      25.948  71.075  32.650  0.00  0.00    -0.297 N 
ATOM     16  H   ASP A   8      26.206  70.359  31.942  0.00  0.00    +0.150 HD
BRANCH  15  17
ATOM     17  CA  ASP A   8      25.691  70.662  34.026  0.00  0.00    +0.160 C 
BRANCH  17  18
ATOM     18  C   ASP A   8      26.673  71.332  34.997  0.00  0.00    +0.241 C 
ATOM     19  O   ASP A   8      26.286  71.849  36.056  0.00  0.00    -0.273 OA
ATOM     20  N   VAL A   9      27.942  71.330  34.630  0.00  0.00    -0.298 N 
ATOM     21  H   VAL A   9      28.207  70.919  33.712  0.00  0.00    +0.150 HD
BRANCH  20  22
ATOM     22  CA  VAL A   9      28.979  71.893  35.488  0.00  0.00    +0.137 C 
BRANCH  22  23
ATOM     23  CB  VAL A   9      30.390  71.605  34.941  0.00  0.00    +0.026 C 
ATOM     24  CG2 VAL A   9      31.449  72.387  35.701  0.00  0.00    +0.002 C 
ATOM     25  CG1 VAL A   9      30.685  70.106  34.981  0.00  0.00    +0.002 C 
ENDBRANCH  22  23
BRANCH  22  26
ATOM     26  C   VAL A   9      28.800  73.399  35.643  0.00  0.00    +0.227 C 
ATOM     27  O   VAL A   9      28.845  73.933  36.751  0.00  0.00    -0.286 OA
ENDBRANCH  22  26
ENDBRANCH  20  22
ENDBRANCH  17  18
BRANCH  17  28
ATOM     28  CB  ASP A   8      25.804  69.145  34.146  0.00  0.00    +0.143 C 
BRANCH  28  29
ATOM     29  CG  ASP A   8      24.655  68.417  33.481  0.00  0.00    +0.367 C 
ATOM     30  OD2 ASP A   8      23.584  69.027  33.310  0.00  0.00    -0.246 OA
ATOM     31  OD1 ASP A   8      24.825  67.230  33.156  0.00  0.00    -0.246 OA
ENDBRANCH  28  29
ENDBRANCH  17  28
ENDBRANCH  15  17
ENDBRANCH  12  13
BRANCH  12  32
ATOM     32  CB  LYS A   7      24.869  72.201  30.004  0.00  0.00    +0.029 C 
BRANCH  32  33
ATOM     33  CG  LYS A   7      23.530  72.639  30.634  0.00  0.00    +0.000 C 
BRANCH  33  34
ATOM     34  CD  LYS A   7      22.330  72.171  29.840  0.00  0.00    -0.024 C 
BRANCH  34  35
ATOM     35  CE  LYS A   7      21.998  70.757  30.182  0.00  0.00    -0.086 C 
BRANCH  35  36
ATOM     36  NZ  LYS A   7      21.456  70.643  31.565  0.00  0.00    +0.380 N 
ATOM     37  HZ1 LYS A   7      22.164  70.989  32.243  0.00  0.00    -0.089 HD
ATOM     38  HZ2 LYS A   7      21.236  69.647  31.769  0.00  0.00    -0.089 HD
ATOM     39  HZ3 LYS A   7      20.590  71.214  31.645  0.00  0.00    -0.089 HD
ENDBRANCH  35  36
ENDBRANCH  34  35
ENDBRANCH  33  34
ENDBRANCH  32  33
ENDBRANCH  12  32
ENDBRANCH  10  12
ENDBRANCH   6   8
ENDBRANCH   4   6
ENDBRANCH   1   2
BRANCH   1  41
ATOM     40  C   SER A   4      28.492  67.215  28.310  0.00  0.00    +0.243 C 
ATOM     41  N   ASP A   5      29.344  67.488  29.290  0.00  0.00    -0.296 N 
ATOM     42  H   ASP A   5      30.358  67.515  29.061  0.00  0.00    +0.150 HD
ATOM     43  O   SER A   4      27.279  67.248  28.438  0.00  0.00    -0.273 OA
BRANCH  40  44
ATOM     44  CA  SER A   4      29.127  66.848  26.975  0.00  0.00    +0.178 C 
BRANCH  44  46
ATOM     45  C   GLU A   3      30.705  68.718  26.744  0.00  0.00    +0.241 C 
ATOM     46  N   SER A   4      30.465  67.413  26.816  0.00  0.00    -0.295 N 
ATOM     47  H   SER A   4      31.272  66.760  26.756  0.00  0.00    +0.150 HD
ATOM     48  O   GLU A   3      29.805  69.569  26.773  0.00  0.00    -0.273 OA
BRANCH  45  49
ATOM     49  CA  GLU A   3      32.175  69.154  26.584  0.00  0.00    +0.149 C 
BRANCH  49  52
ATOM     50  C   SER A   2      33.011  67.846  28.429  0.00  0.00    +0.243 C 
ATOM     51  O   SER A   2      32.198  68.363  29.192  0.00  0.00    -0.273 OA
ATOM     52  N   GLU A   3      33.122  68.204  27.155  0.00  0.00    -0.297 N 
ATOM     53  H   GLU A   3      33.882  67.808  26.566  0.00  0.00    +0.150 HD
BRANCH  50  54
ATOM     54  CA  SER A   2      33.898  66.709  28.894  0.00  0.00    +0.178 C 
BRANCH  54  56
ATOM     55  C   SER A   1      35.081  68.015  30.573  0.00  0.00    +0.241 C 
ATOM     56  N   SER A   2      34.368  66.944  30.250  0.00  0.00    -0.295 N 
ATOM     57  H   SER A   2      34.138  66.250  30.990  0.00  0.00    +0.150 HD
ATOM     58  O   SER A   1      35.510  68.814  29.739  0.00  0.00    -0.274 OA
BRANCH  55  59
ATOM     59  CA  SER A   1      35.380  68.208  32.047  0.00  0.00    +0.174 C 
BRANCH  59  60
ATOM     60  N   SER A   1      36.775  68.567  32.228  0.00  0.00    -0.236 NA
ATOM     61  H   SER A   1      37.308  68.945  31.419  0.00  0.00    +0.142 HD
ENDBRANCH  59  60
BRANCH  59  62
ATOM     62  CB  SER A   1      34.457  69.273  32.637  0.00  0.00    +0.163 C 
BRANCH  62  63
ATOM     63  OG  SER A   1      33.108  68.882  32.466  0.00  0.00    -0.380 OA
ATOM     64  H   SER A   1      32.916  68.778  31.500  0.00  0.00    +0.211 HD
ENDBRANCH  62  63
ENDBRANCH  59  62
ENDBRANCH  55  59
ENDBRANCH  54  56
BRANCH  54  65
ATOM     65  CB  SER A   2      33.110  65.403  28.836  0.00  0.00    +0.166 C 
BRANCH  65  66
ATOM     66  OG  SER A   2      32.522  65.232  27.559  0.00  0.00    -0.380 OA
ATOM     67  H   SER A   2      33.233  65.209  26.870  0.00  0.00    +0.211 HD
ENDBRANCH  65  66
ENDBRANCH  54  65
ENDBRANCH  50  54
ENDBRANCH  49  52
BRANCH  49  68
ATOM     68  CB  GLU A   3      32.470  69.362  25.091  0.00  0.00    +0.041 C 
BRANCH  68  69
ATOM     69  CG  GLU A   3      33.859  69.908  24.796  0.00  0.00    +0.116 C 
BRANCH  69  70
ATOM     70  CD  GLU A   3      34.841  68.813  24.375  0.00  0.00    +0.365 C 
ATOM     71  OE2 GLU A   3      34.815  67.725  24.981  0.00  0.00    -0.246 OA
ATOM     72  OE1 GLU A   3      35.619  69.018  23.415  0.00  0.00    -0.246 OA
ENDBRANCH  69  70
ENDBRANCH  68  69
ENDBRANCH  49  68
ENDBRANCH  45  49
ENDBRANCH  44  46
BRANCH  44  73
ATOM     73  CB  SER A   4      29.189  65.320  26.841  0.00  0.00    +0.166 C 
BRANCH  73  74
ATOM     74  OG  SER A   4      27.926  64.726  27.097  0.00  0.00    -0.380 OA
ATOM     75  H   SER A   4      28.000  63.743  27.003  0.00  0.00    +0.211 HD
ENDBRANCH  73  74
ENDBRANCH  44  73
ENDBRANCH  40  44
ENDBRANCH   1  41
BRANCH   1  76
ATOM     76  CB  ASP A   5      29.843  66.961  31.631  0.00  0.00    +0.143 C 
BRANCH  76  77
ATOM     77  CG  ASP A   5      29.645  65.455  31.526  0.00  0.00    +0.367 C 
ATOM     78  OD2 ASP A   5      30.632  64.702  31.661  0.00  0.00    -0.246 OA
ATOM     79  OD1 ASP A   5      28.502  65.003  31.327  0.00  0.00    -0.246 OA
ENDBRANCH  76  77
ENDBRANCH   1  76
TORSDOF 37
REMARK  Name = ../refined-set-2016/4uac/4uac_pocket.pdb
REMARK  256 active torsions:
REMARK  status: ('A' for Active; 'I' for Inactive)
REMARK    1  A    between atoms: _1  and  _3
REMARK    2  A    between atoms: _3  and  _4
REMARK    3  A    between atoms: _7  and  _8
REMARK    4  A    between atoms: _13  and  _15
REMARK    5  A    between atoms: _15  and  _16
REMARK    6  A    between atoms: _19  and  _21
REMARK    7  A    between atoms: _21  and  _22
REMARK    8  A    between atoms: _21  and  _24
REMARK    9  A    between atoms: _24  and  _25
REMARK   10  A    between atoms: _25  and  _26
REMARK   11  A    between atoms: _29  and  _31
REMARK   12  A    between atoms: _31  and  _32
REMARK   13  A    between atoms: _31  and  _34
REMARK   14  A    between atoms: _34  and  _35
REMARK   15  A    between atoms: _38  and  _40
REMARK   16  A    between atoms: _40  and  _41
REMARK   17  A    between atoms: _40  and  _43
REMARK   18  A    between atoms: _43  and  _44
REMARK   19  A    between atoms: _46  and  _48
REMARK   20  A    between atoms: _48  and  _49
REMARK   21  A    between atoms: _48  and  _51
REMARK   22  A    between atoms: _51  and  _52
REMARK   23  A    between atoms: _54  and  _56
REMARK   24  A    between atoms: _56  and  _57
REMARK   25  A    between atoms: _56  and  _59
REMARK   26  A    between atoms: _59  and  _60
REMARK   27  A    between atoms: _60  and  _61
REMARK   28  A    between atoms: _64  and  _66
REMARK   29  A    between atoms: _66  and  _67
REMARK   30  A    between atoms: _66  and  _69
REMARK   31  A    between atoms: _69  and  _70
REMARK   32  A    between atoms: _72  and  _74
REMARK   33  A    between atoms: _74  and  _75
REMARK   34  A    between atoms: _74  and  _77
REMARK   35  A    between atoms: _77  and  _78
REMARK   36  A    between atoms: _81  and  _83
REMARK   37  A    between atoms: _83  and  _84
REMARK   38  A    between atoms: _87  and  _89
REMARK   39  A    between atoms: _89  and  _90
REMARK   40  A    between atoms: _89  and  _92
REMARK   41  A    between atoms: _92  and  _93
REMARK   42  A    between atoms: _93  and  _94
REMARK   43  A    between atoms: _94  and  _95
REMARK   44  A    between atoms: _95  and  _96
REMARK   45  A    between atoms: _100  and  _102
REMARK   46  A    between atoms: _102  and  _103
REMARK   47  A    between atoms: _102  and  _105
REMARK   48  A    between atoms: _105  and  _106
REMARK   49  A    between atoms: _109  and  _111
REMARK   50  A    between atoms: _111  and  _112
REMARK   51  A    between atoms: _111  and  _114
REMARK   52  A    between atoms: _117  and  _119
REMARK   53  A    between atoms: _119  and  _120
REMARK   54  A    between atoms: _119  and  _122
REMARK   55  A    between atoms: _122  and  _123
REMARK   56  A    between atoms: _126  and  _128
REMARK   57  A    between atoms: _128  and  _129
REMARK   58  A    between atoms: _128  and  _131
REMARK   59  A    between atoms: _131  and  _132
REMARK   60  A    between atoms: _132  and  _133
REMARK   61  A    between atoms: _135  and  _137
REMARK   62  A    between atoms: _137  and  _138
REMARK   63  A    between atoms: _137  and  _140
REMARK   64  A    between atoms: _140  and  _141
REMARK   65  A    between atoms: _147  and  _149
REMARK   66  A    between atoms: _149  and  _150
REMARK   67  A    between atoms: _153  and  _155
REMARK   68  A    between atoms: _155  and  _156
REMARK   69  A    between atoms: _155  and  _158
REMARK   70  A    between atoms: _158  and  _159
REMARK   71  A    between atoms: _164  and  _166
REMARK   72  A    between atoms: _166  and  _167
REMARK   73  A    between atoms: _166  and  _169
REMARK   74  A    between atoms: _169  and  _170
REMARK   75  A    between atoms: _173  and  _175
REMARK   76  A    between atoms: _175  and  _176
REMARK   77  A    between atoms: _175  and  _178
REMARK   78  A    between atoms: _178  and  _179
REMARK   79  A    between atoms: _179  and  _180
REMARK   80  A    between atoms: _185  and  _187
REMARK   81  A    between atoms: _187  and  _188
REMARK   82  A    between atoms: _187  and  _190
REMARK   83  A    between atoms: _190  and  _191
REMARK   84  A    between atoms: _195  and  _196
REMARK   85  A    between atoms: _201  and  _203
REMARK   86  A    between atoms: _203  and  _204
REMARK   87  A    between atoms: _203  and  _206
REMARK   88  A    between atoms: _206  and  _207
REMARK   89  A    between atoms: _212  and  _213
REMARK   90  A    between atoms: _215  and  _217
REMARK   91  A    between atoms: _217  and  _218
REMARK   92  A    between atoms: _217  and  _220
REMARK   93  A    between atoms: _220  and  _221
REMARK   94  A    between atoms: _224  and  _226
REMARK   95  A    between atoms: _226  and  _227
REMARK   96  A    between atoms: _226  and  _229
REMARK   97  A    between atoms: _229  and  _230
REMARK   98  A    between atoms: _232  and  _234
REMARK   99  A    between atoms: _234  and  _235
REMARK  100  A    between atoms: _234  and  _237
REMARK  101  A    between atoms: _237  and  _238
REMARK  102  A    between atoms: _243  and  _245
REMARK  103  A    between atoms: _245  and  _246
REMARK  104  A    between atoms: _245  and  _248
REMARK  105  A    between atoms: _248  and  _249
REMARK  106  A    between atoms: _252  and  _254
REMARK  107  A    between atoms: _254  and  _255
REMARK  108  A    between atoms: _254  and  _257
REMARK  109  A    between atoms: _257  and  _258
REMARK  110  A    between atoms: _269  and  _270
REMARK  111  A    between atoms: _275  and  _277
REMARK  112  A    between atoms: _277  and  _278
REMARK  113  A    between atoms: _277  and  _280
REMARK  114  A    between atoms: _280  and  _281
REMARK  115  A    between atoms: _284  and  _286
REMARK  116  A    between atoms: _286  and  _287
REMARK  117  A    between atoms: _286  and  _289
REMARK  118  A    between atoms: _289  and  _290
REMARK  119  A    between atoms: _295  and  _297
REMARK  120  A    between atoms: _297  and  _298
REMARK  121  A    between atoms: _300  and  _302
REMARK  122  A    between atoms: _302  and  _303
REMARK  123  A    between atoms: _302  and  _305
REMARK  124  A    between atoms: _305  and  _306
REMARK  125  A    between atoms: _316  and  _318
REMARK  126  A    between atoms: _318  and  _319
REMARK  127  A    between atoms: _318  and  _321
REMARK  128  A    between atoms: _321  and  _322
REMARK  129  A    between atoms: _327  and  _328
REMARK  130  A    between atoms: _330  and  _332
REMARK  131  A    between atoms: _332  and  _333
REMARK  132  A    between atoms: _332  and  _335
REMARK  133  A    between atoms: _335  and  _336
REMARK  134  A    between atoms: _339  and  _341
REMARK  135  A    between atoms: _341  and  _342
REMARK  136  A    between atoms: _341  and  _344
REMARK  137  A    between atoms: _344  and  _345
REMARK  138  A    between atoms: _350  and  _352
REMARK  139  A    between atoms: _352  and  _353
REMARK  140  A    between atoms: _352  and  _355
REMARK  141  A    between atoms: _355  and  _356
REMARK  142  A    between atoms: _361  and  _363
REMARK  143  A    between atoms: _363  and  _364
REMARK  144  A    between atoms: _363  and  _366
REMARK  145  A    between atoms: _366  and  _367
REMARK  146  A    between atoms: _367  and  _368
REMARK  147  A    between atoms: _371  and  _373
REMARK  148  A    between atoms: _373  and  _374
REMARK  149  A    between atoms: _376  and  _378
REMARK  150  A    between atoms: _378  and  _379
REMARK  151  A    between atoms: _378  and  _381
REMARK  152  A    between atoms: _381  and  _382
REMARK  153  A    between atoms: _384  and  _386
REMARK  154  A    between atoms: _386  and  _387
REMARK  155  A    between atoms: _386  and  _389
REMARK  156  A    between atoms: _389  and  _390
REMARK  157  A    between atoms: _395  and  _396
REMARK  158  A    between atoms: _398  and  _400
REMARK  159  A    between atoms: _400  and  _401
REMARK  160  A    between atoms: _400  and  _403
REMARK  161  A    between atoms: _403  and  _404
REMARK  162  A    between atoms: _409  and  _411
REMARK  163  A    between atoms: _411  and  _412
REMARK  164  A    between atoms: _414  and  _416
REMARK  165  A    between atoms: _416  and  _417
REMARK  166  A    between atoms: _416  and  _419
REMARK  167  A    between atoms: _419  and  _420
REMARK  168  A    between atoms: _425  and  _427
REMARK  169  A    between atoms: _427  and  _428
REMARK  170  A    between atoms: _427  and  _430
REMARK  171  A    between atoms: _430  and  _431
REMARK  172  A    between atoms: _441  and  _443
REMARK  173  A    between atoms: _443  and  _444
REMARK  174  A    between atoms: _443  and  _446
REMARK  175  A    between atoms: _446  and  _447
REMARK  176  A    between atoms: _452  and  _454
REMARK  177  A    between atoms: _454  and  _455
REMARK  178  A    between atoms: _454  and  _457
REMARK  179  A    between atoms: _457  and  _458
REMARK  180  A    between atoms: _458  and  _459
REMARK  181  A    between atoms: _459  and  _460
REMARK  182  A    between atoms: _460  and  _461
REMARK  183  A    between atoms: _465  and  _467
REMARK  184  A    between atoms: _467  and  _468
REMARK  185  A    between atoms: _467  and  _470
REMARK  186  A    between atoms: _470  and  _471
REMARK  187  A    between atoms: _477  and  _479
REMARK  188  A    between atoms: _479  and  _480
REMARK  189  A    between atoms: _482  and  _484
REMARK  190  A    between atoms: _484  and  _485
REMARK  191  A    between atoms: _484  and  _487
REMARK  192  A    between atoms: _487  and  _488
REMARK  193  A    between atoms: _490  and  _492
REMARK  194  A    between atoms: _492  and  _493
REMARK  195  A    between atoms: _492  and  _495
REMARK  196  A    between atoms: _495  and  _496
REMARK  197  A    between atoms: _496  and  _497
REMARK  198  A    between atoms: _497  and  _498
REMARK  199  A    between atoms: _498  and  _499
REMARK  200  A    between atoms: _503  and  _505
REMARK  201  A    between atoms: _505  and  _506
REMARK  202  A    between atoms: _505  and  _508
REMARK  203  A    between atoms: _508  and  _509
REMARK  204  A    between atoms: _514  and  _516
REMARK  205  A    between atoms: _516  and  _517
REMARK  206  A    between atoms: _516  and  _519
REMARK  207  A    between atoms: _519  and  _520
REMARK  208  A    between atoms: _520  and  _521
REMARK  209  A    between atoms: _521  and  _522
REMARK  210  A    between atoms: _531  and  _533
REMARK  211  A    between atoms: _533  and  _534
REMARK  212  A    between atoms: _533  and  _536
REMARK  213  A    between atoms: _536  and  _537
REMARK  214  A    between atoms: _537  and  _538
REMARK  215  A    between atoms: _543  and  _545
REMARK  216  A    between atoms: _545  and  _546
REMARK  217  A    between atoms: _545  and  _548
REMARK  218  A    between atoms: _548  and  _549
REMARK  219  A    between atoms: _549  and  _550
REMARK  220  A    between atoms: _555  and  _557
REMARK  221  A    between atoms: _557  and  _558
REMARK  222  A    between atoms: _557  and  _560
REMARK  223  A    between atoms: _560  and  _561
REMARK  224  A    between atoms: _564  and  _566
REMARK  225  A    between atoms: _566  and  _567
REMARK  226  A    between atoms: _566  and  _569
REMARK  227  A    between atoms: _569  and  _570
REMARK  228  A    between atoms: _570  and  _571
REMARK  229  A    between atoms: _573  and  _575
REMARK  230  A    between atoms: _575  and  _576
REMARK  231  A    between atoms: _575  and  _578
REMARK  232  A    between atoms: _578  and  _579
REMARK  233  A    between atoms: _581  and  _583
REMARK  234  A    between atoms: _583  and  _584
REMARK  235  A    between atoms: _586  and  _588
REMARK  236  A    between atoms: _588  and  _589
REMARK  237  A    between atoms: _588  and  _591
REMARK  238  A    between atoms: _591  and  _592
REMARK  239  A    between atoms: _597  and  _598
REMARK  240  A    between atoms: _600  and  _602
REMARK  241  A    between atoms: _602  and  _603
REMARK  242  A    between atoms: _602  and  _605
REMARK  243  A    between atoms: _605  and  _606
REMARK  244  A    between atoms: _616  and  _618
REMARK  245  A    between atoms: _618  and  _619
REMARK  246  A    between atoms: _618  and  _621
REMARK  247  A    between atoms: _621  and  _622
REMARK  248  A    between atoms: _625  and  _627
REMARK  249  A    between atoms: _627  and  _628
REMARK  250  A    between atoms: _631  and  _633
REMARK  251  A    between atoms: _633  and  _634
REMARK  252  A    between atoms: _637  and  _639
REMARK  253  A    between atoms: _639  and  _640
REMARK  254  A    between atoms: _639  and  _642
REMARK  255  A    between atoms: _642  and  _643
REMARK  256  A    between atoms: _647  and  _648
REMARK                            x       y       z     vdW  Elec       q    Type
REMARK                         _______ _______ _______ _____ _____    ______ ____
ROOT
ATOM      1  CA  THR A   1      24.767  76.154  35.026  0.00  0.00    +0.160 C 
ENDROOT
BRANCH   1   2
ATOM      2  N   THR A   1      26.051  75.582  34.676  0.00  0.00    -0.237 NA
ATOM      3  H   THR A   1      26.097  74.774  34.023  0.00  0.00    +0.142 HD
ENDBRANCH   1   2
BRANCH   1   4
ATOM      4  C   THR A   1      24.403  75.940  36.493  0.00  0.00    +0.227 C 
ATOM      5  O   THR A   1      23.658  76.672  37.038  0.00  0.00    -0.287 OA
ENDBRANCH   1   4
BRANCH   1   6
ATOM      6  CB  THR A   1      23.596  75.683  34.130  0.00  0.00    +0.134 C 
ATOM      7  CG2 THR A   1      23.845  76.061  32.700  0.00  0.00    +0.034 C 
BRANCH   6   8
ATOM      8  OG1 THR A   1      23.382  74.303  34.250  0.00  0.00    -0.383 OA
ATOM      9  HG1 THR A   1      24.201  73.818  33.977  0.00  0.00    +0.210 HD
ENDBRANCH   6   8
ENDBRANCH   1   6
TORSDOF 4
REMARK  Name = ../refined-set-2016/4uac/4uac_pocket.pdb
REMARK  256 active torsions:
REMARK  status: ('A' for Active; 'I' for Inactive)
REMARK    1  A    between atoms: _1  and  _3
REMARK    2  A    between atoms: _3  and  _4
REMARK    3  A    between atoms: _7  and  _8
REMARK    4  A    between atoms: _13  and  _15
REMARK    5  A    between atoms: _15  and  _16
REMARK    6  A    between atoms: _19  and  _21
REMARK    7  A    between atoms: _21  and  _22
REMARK    8  A    between atoms: _21  and  _24
REMARK    9  A    between atoms: _24  and  _25
REMARK   10  A    between atoms: _25  and  _26
REMARK   11  A    between atoms: _29  and  _31
REMARK   12  A    between atoms: _31  and  _32
REMARK   13  A    between atoms: _31  and  _34
REMARK   14  A    between atoms: _34  and  _35
REMARK   15  A    between atoms: _38  and  _40
REMARK   16  A    between atoms: _40  and  _41
REMARK   17  A    between atoms: _40  and  _43
REMARK   18  A    between atoms: _43  and  _44
REMARK   19  A    between atoms: _46  and  _48
REMARK   20  A    between atoms: _48  and  _49
REMARK   21  A    between atoms: _48  and  _51
REMARK   22  A    between atoms: _51  and  _52
REMARK   23  A    between atoms: _54  and  _56
REMARK   24  A    between atoms: _56  and  _57
REMARK   25  A    between atoms: _56  and  _59
REMARK   26  A    between atoms: _59  and  _60
REMARK   27  A    between atoms: _60  and  _61
REMARK   28  A    between atoms: _64  and  _66
REMARK   29  A    between atoms: _66  and  _67
REMARK   30  A    between atoms: _66  and  _69
REMARK   31  A    between atoms: _69  and  _70
REMARK   32  A    between atoms: _72  and  _74
REMARK   33  A    between atoms: _74  and  _75
REMARK   34  A    between atoms: _74  and  _77
REMARK   35  A    between atoms: _77  and  _78
REMARK   36  A    between atoms: _81  and  _83
REMARK   37  A    between atoms: _83  and  _84
REMARK   38  A    between atoms: _87  and  _89
REMARK   39  A    between atoms: _89  and  _90
REMARK   40  A    between atoms: _89  and  _92
REMARK   41  A    between atoms: _92  and  _93
REMARK   42  A    between atoms: _93  and  _94
REMARK   43  A    between atoms: _94  and  _95
REMARK   44  A    between atoms: _95  and  _96
REMARK   45  A    between atoms: _100  and  _102
REMARK   46  A    between atoms: _102  and  _103
REMARK   47  A    between atoms: _102  and  _105
REMARK   48  A    between atoms: _105  and  _106
REMARK   49  A    between atoms: _109  and  _111
REMARK   50  A    between atoms: _111  and  _112
REMARK   51  A    between atoms: _111  and  _114
REMARK   52  A    between atoms: _117  and  _119
REMARK   53  A    between atoms: _119  and  _120
REMARK   54  A    between atoms: _119  and  _122
REMARK   55  A    between atoms: _122  and  _123
REMARK   56  A    between atoms: _126  and  _128
REMARK   57  A    between atoms: _128  and  _129
REMARK   58  A    between atoms: _128  and  _131
REMARK   59  A    between atoms: _131  and  _132
REMARK   60  A    between atoms: _132  and  _133
REMARK   61  A    between atoms: _135  and  _137
REMARK   62  A    between atoms: _137  and  _138
REMARK   63  A    between atoms: _137  and  _140
REMARK   64  A    between atoms: _140  and  _141
REMARK   65  A    between atoms: _147  and  _149
REMARK   66  A    between atoms: _149  and  _150
REMARK   67  A    between atoms: _153  and  _155
REMARK   68  A    between atoms: _155  and  _156
REMARK   69  A    between atoms: _155  and  _158
REMARK   70  A    between atoms: _158  and  _159
REMARK   71  A    between atoms: _164  and  _166
REMARK   72  A    between atoms: _166  and  _167
REMARK   73  A    between atoms: _166  and  _169
REMARK   74  A    between atoms: _169  and  _170
REMARK   75  A    between atoms: _173  and  _175
REMARK   76  A    between atoms: _175  and  _176
REMARK   77  A    between atoms: _175  and  _178
REMARK   78  A    between atoms: _178  and  _179
REMARK   79  A    between atoms: _179  and  _180
REMARK   80  A    between atoms: _185  and  _187
REMARK   81  A    between atoms: _187  and  _188
REMARK   82  A    between atoms: _187  and  _190
REMARK   83  A    between atoms: _190  and  _191
REMARK   84  A    between atoms: _195  and  _196
REMARK   85  A    between atoms: _201  and  _203
REMARK   86  A    between atoms: _203  and  _204
REMARK   87  A    between atoms: _203  and  _206
REMARK   88  A    between atoms: _206  and  _207
REMARK   89  A    between atoms: _212  and  _213
REMARK   90  A    between atoms: _215  and  _217
REMARK   91  A    between atoms: _217  and  _218
REMARK   92  A    between atoms: _217  and  _220
REMARK   93  A    between atoms: _220  and  _221
REMARK   94  A    between atoms: _224  and  _226
REMARK   95  A    between atoms: _226  and  _227
REMARK   96  A    between atoms: _226  and  _229
REMARK   97  A    between atoms: _229  and  _230
REMARK   98  A    between atoms: _232  and  _234
REMARK   99  A    between atoms: _234  and  _235
REMARK  100  A    between atoms: _234  and  _237
REMARK  101  A    between atoms: _237  and  _238
REMARK  102  A    between atoms: _243  and  _245
REMARK  103  A    between atoms: _245  and  _246
REMARK  104  A    between atoms: _245  and  _248
REMARK  105  A    between atoms: _248  and  _249
REMARK  106  A    between atoms: _252  and  _254
REMARK  107  A    between atoms: _254  and  _255
REMARK  108  A    between atoms: _254  and  _257
REMARK  109  A    between atoms: _257  and  _258
REMARK  110  A    between atoms: _269  and  _270
REMARK  111  A    between atoms: _275  and  _277
REMARK  112  A    between atoms: _277  and  _278
REMARK  113  A    between atoms: _277  and  _280
REMARK  114  A    between atoms: _280  and  _281
REMARK  115  A    between atoms: _284  and  _286
REMARK  116  A    between atoms: _286  and  _287
REMARK  117  A    between atoms: _286  and  _289
REMARK  118  A    between atoms: _289  and  _290
REMARK  119  A    between atoms: _295  and  _297
REMARK  120  A    between atoms: _297  and  _298
REMARK  121  A    between atoms: _300  and  _302
REMARK  122  A    between atoms: _302  and  _303
REMARK  123  A    between atoms: _302  and  _305
REMARK  124  A    between atoms: _305  and  _306
REMARK  125  A    between atoms: _316  and  _318
REMARK  126  A    between atoms: _318  and  _319
REMARK  127  A    between atoms: _318  and  _321
REMARK  128  A    between atoms: _321  and  _322
REMARK  129  A    between atoms: _327  and  _328
REMARK  130  A    between atoms: _330  and  _332
REMARK  131  A    between atoms: _332  and  _333
REMARK  132  A    between atoms: _332  and  _335
REMARK  133  A    between atoms: _335  and  _336
REMARK  134  A    between atoms: _339  and  _341
REMARK  135  A    between atoms: _341  and  _342
REMARK  136  A    between atoms: _341  and  _344
REMARK  137  A    between atoms: _344  and  _345
REMARK  138  A    between atoms: _350  and  _352
REMARK  139  A    between atoms: _352  and  _353
REMARK  140  A    between atoms: _352  and  _355
REMARK  141  A    between atoms: _355  and  _356
REMARK  142  A    between atoms: _361  and  _363
REMARK  143  A    between atoms: _363  and  _364
REMARK  144  A    between atoms: _363  and  _366
REMARK  145  A    between atoms: _366  and  _367
REMARK  146  A    between atoms: _367  and  _368
REMARK  147  A    between atoms: _371  and  _373
REMARK  148  A    between atoms: _373  and  _374
REMARK  149  A    between atoms: _376  and  _378
REMARK  150  A    between atoms: _378  and  _379
REMARK  151  A    between atoms: _378  and  _381
REMARK  152  A    between atoms: _381  and  _382
REMARK  153  A    between atoms: _384  and  _386
REMARK  154  A    between atoms: _386  and  _387
REMARK  155  A    between atoms: _386  and  _389
REMARK  156  A    between atoms: _389  and  _390
REMARK  157  A    between atoms: _395  and  _396
REMARK  158  A    between atoms: _398  and  _400
REMARK  159  A    between atoms: _400  and  _401
REMARK  160  A    between atoms: _400  and  _403
REMARK  161  A    between atoms: _403  and  _404
REMARK  162  A    between atoms: _409  and  _411
REMARK  163  A    between atoms: _411  and  _412
REMARK  164  A    between atoms: _414  and  _416
REMARK  165  A    between atoms: _416  and  _417
REMARK  166  A    between atoms: _416  and  _419
REMARK  167  A    between atoms: _419  and  _420
REMARK  168  A    between atoms: _425  and  _427
REMARK  169  A    between atoms: _427  and  _428
REMARK  170  A    between atoms: _427  and  _430
REMARK  171  A    between atoms: _430  and  _431
REMARK  172  A    between atoms: _441  and  _443
REMARK  173  A    between atoms: _443  and  _444
REMARK  174  A    between atoms: _443  and  _446
REMARK  175  A    between atoms: _446  and  _447
REMARK  176  A    between atoms: _452  and  _454
REMARK  177  A    between atoms: _454  and  _455
REMARK  178  A    between atoms: _454  and  _457
REMARK  179  A    between atoms: _457  and  _458
REMARK  180  A    between atoms: _458  and  _459
REMARK  181  A    between atoms: _459  and  _460
REMARK  182  A    between atoms: _460  and  _461
REMARK  183  A    between atoms: _465  and  _467
REMARK  184  A    between atoms: _467  and  _468
REMARK  185  A    between atoms: _467  and  _470
REMARK  186  A    between atoms: _470  and  _471
REMARK  187  A    between atoms: _477  and  _479
REMARK  188  A    between atoms: _479  and  _480
REMARK  189  A    between atoms: _482  and  _484
REMARK  190  A    between atoms: _484  and  _485
REMARK  191  A    between atoms: _484  and  _487
REMARK  192  A    between atoms: _487  and  _488
REMARK  193  A    between atoms: _490  and  _492
REMARK  194  A    between atoms: _492  and  _493
REMARK  195  A    between atoms: _492  and  _495
REMARK  196  A    between atoms: _495  and  _496
REMARK  197  A    between atoms: _496  and  _497
REMARK  198  A    between atoms: _497  and  _498
REMARK  199  A    between atoms: _498  and  _499
REMARK  200  A    between atoms: _503  and  _505
REMARK  201  A    between atoms: _505  and  _506
REMARK  202  A    between atoms: _505  and  _508
REMARK  203  A    between atoms: _508  and  _509
REMARK  204  A    between atoms: _514  and  _516
REMARK  205  A    between atoms: _516  and  _517
REMARK  206  A    between atoms: _516  and  _519
REMARK  207  A    between atoms: _519  and  _520
REMARK  208  A    between atoms: _520  and  _521
REMARK  209  A    between atoms: _521  and  _522
REMARK  210  A    between atoms: _531  and  _533
REMARK  211  A    between atoms: _533  and  _534
REMARK  212  A    between atoms: _533  and  _536
REMARK  213  A    between atoms: _536  and  _537
REMARK  214  A    between atoms: _537  and  _538
REMARK  215  A    between atoms: _543  and  _545
REMARK  216  A    between atoms: _545  and  _546
REMARK  217  A    between atoms: _545  and  _548
REMARK  218  A    between atoms: _548  and  _549
REMARK  219  A    between atoms: _549  and  _550
REMARK  220  A    between atoms: _555  and  _557
REMARK  221  A    between atoms: _557  and  _558
REMARK  222  A    between atoms: _557  and  _560
REMARK  223  A    between atoms: _560  and  _561
REMARK  224  A    between atoms: _564  and  _566
REMARK  225  A    between atoms: _566  and  _567
REMARK  226  A    between atoms: _566  and  _569
REMARK  227  A    between atoms: _569  and  _570
REMARK  228  A    between atoms: _570  and  _571
REMARK  229  A    between atoms: _573  and  _575
REMARK  230  A    between atoms: _575  and  _576
REMARK  231  A    between atoms: _575  and  _578
REMARK  232  A    between atoms: _578  and  _579
REMARK  233  A    between atoms: _581  and  _583
REMARK  234  A    between atoms: _583  and  _584
REMARK  235  A    between atoms: _586  and  _588
REMARK  236  A    between atoms: _588  and  _589
REMARK  237  A    between atoms: _588  and  _591
REMARK  238  A    between atoms: _591  and  _592
REMARK  239  A    between atoms: _597  and  _598
REMARK  240  A    between atoms: _600  and  _602
REMARK  241  A    between atoms: _602  and  _603
REMARK  242  A    between atoms: _602  and  _605
REMARK  243  A    between atoms: _605  and  _606
REMARK  244  A    between atoms: _616  and  _618
REMARK  245  A    between atoms: _618  and  _619
REMARK  246  A    between atoms: _618  and  _621
REMARK  247  A    between atoms: _621  and  _622
REMARK  248  A    between atoms: _625  and  _627
REMARK  249  A    between atoms: _627  and  _628
REMARK  250  A    between atoms: _631  and  _633
REMARK  251  A    between atoms: _633  and  _634
REMARK  252  A    between atoms: _637  and  _639
REMARK  253  A    between atoms: _639  and  _640
REMARK  254  A    between atoms: _639  and  _642
REMARK  255  A    between atoms: _642  and  _643
REMARK  256  A    between atoms: _647  and  _648
REMARK                            x       y       z     vdW  Elec       q    Type
REMARK                         _______ _______ _______ _____ _____    ______ ____
ROOT
ATOM      1  CA  ASN A   4      26.521  73.899  21.191  0.00  0.00    +0.158 C 
ENDROOT
BRANCH   1   4
ATOM      2  C   ALA A   3      27.566  72.348  22.685  0.00  0.00    +0.241 C 
ATOM      3  O   ALA A   3      26.843  72.706  23.592  0.00  0.00    -0.273 OA
ATOM      4  N   ASN A   4      27.365  72.753  21.442  0.00  0.00    -0.297 N 
ATOM      5  H   ASN A   4      27.812  72.249  20.649  0.00  0.00    +0.150 HD
BRANCH   2   6
ATOM      6  CA  ALA A   3      28.727  71.412  22.930  0.00  0.00    +0.149 C 
ATOM      7  CB  ALA A   3      28.227  69.991  23.067  0.00  0.00    +0.031 C 
BRANCH   6   9
ATOM      8  C   PHE A   2      30.551  72.582  24.086  0.00  0.00    +0.241 C 
ATOM      9  N   ALA A   3      29.461  71.828  24.129  0.00  0.00    -0.297 N 
ATOM     10  H   ALA A   3      29.110  71.517  25.057  0.00  0.00    +0.150 HD
ATOM     11  O   PHE A   2      31.068  72.962  23.043  0.00  0.00    -0.273 OA
BRANCH   8  12
ATOM     12  CA  PHE A   2      31.136  72.996  25.432  0.00  0.00    +0.153 C 
BRANCH  12  15
ATOM     13  C   MET A   1      33.423  73.346  26.186  0.00  0.00    +0.238 C 
ATOM     14  O   MET A   1      33.308  72.517  27.103  0.00  0.00    -0.274 OA
ATOM     15  N   PHE A   2      32.458  73.574  25.286  0.00  0.00    -0.297 N 
ATOM     16  H   PHE A   2      32.661  74.179  24.465  0.00  0.00    +0.150 HD
BRANCH  13  17
ATOM     17  CA  MET A   1      34.718  74.135  26.030  0.00  0.00    +0.146 C 
BRANCH  17  18
ATOM     18  N   MET A   1      35.020  74.841  27.263  0.00  0.00    -0.238 NA
ATOM     19  H   MET A   1      35.461  74.310  28.041  0.00  0.00    +0.142 HD
ENDBRANCH  17  18
BRANCH  17  20
ATOM     20  CB  MET A   1      35.880  73.219  25.663  0.00  0.00    +0.038 C 
BRANCH  20  21
ATOM     21  CG  MET A   1      37.191  73.974  25.490  0.00  0.00    +0.060 C 
BRANCH  21  22
ATOM     22  SD  MET A   1      38.675  72.984  25.316  0.00  0.00    -0.139 S 
ATOM     23  CE  MET A   1      38.387  72.203  23.744  0.00  0.00    +0.069 C 
ENDBRANCH  21  22
ENDBRANCH  20  21
ENDBRANCH  17  20
ENDBRANCH  13  17
ENDBRANCH  12  15
BRANCH  12  24
ATOM     24  CB  PHE A   2      30.210  73.978  26.159  0.00  0.00    +0.055 C 
BRANCH  24  25
ATOM     25  CG  PHE A   2      29.777  75.173  25.341  0.00  0.00    -0.020 A 
ATOM     26  CD2 PHE A   2      30.628  76.247  25.123  0.00  0.00    -0.004 A 
ATOM     27  CE2 PHE A   2      30.209  77.328  24.379  0.00  0.00    -0.000 A 
ATOM     28  CZ  PHE A   2      28.957  77.352  23.830  0.00  0.00    -0.000 A 
ATOM     29  CE1 PHE A   2      28.090  76.286  24.021  0.00  0.00    -0.000 A 
ATOM     30  CD1 PHE A   2      28.511  75.199  24.761  0.00  0.00    -0.004 A 
ENDBRANCH  24  25
ENDBRANCH  12  24
ENDBRANCH   8  12
ENDBRANCH   6   9
ENDBRANCH   2   6
ENDBRANCH   1   4
BRANCH   1  31
ATOM     31  C   ASN A   4      25.041  73.753  21.553  0.00  0.00    +0.241 C 
ATOM     32  O   ASN A   4      24.363  74.764  21.720  0.00  0.00    -0.273 OA
ATOM     33  N   ASP A   5      24.541  72.525  21.661  0.00  0.00    -0.297 N 
ATOM     34  H   ASP A   5      25.150  71.704  21.467  0.00  0.00    +0.150 HD
BRANCH  33  35
ATOM     35  CA  ASP A   5      23.147  72.313  22.049  0.00  0.00    +0.160 C 
BRANCH  35  36
ATOM     36  C   ASP A   5      22.896  72.817  23.457  0.00  0.00    +0.241 C 
ATOM     37  N   GLN A   6      23.979  73.063  24.185  0.00  0.00    -0.297 N 
ATOM     38  H   GLN A   6      24.918  72.873  23.780  0.00  0.00    +0.150 HD
ATOM     39  O   ASP A   5      21.741  72.975  23.888  0.00  0.00    -0.273 OA
BRANCH  37  40
ATOM     40  CA  GLN A   6      23.881  73.597  25.550  0.00  0.00    +0.149 C 
BRANCH  40  41
ATOM     41  C   GLN A   6      23.692  75.103  25.607  0.00  0.00    +0.241 C 
ATOM     42  O   GLN A   6      23.530  75.676  26.688  0.00  0.00    -0.273 OA
ATOM     43  N   LEU A   7      23.635  75.747  24.453  0.00  0.00    -0.298 N 
ATOM     44  H   LEU A   7      23.569  75.201  23.570  0.00  0.00    +0.150 HD
BRANCH  43  45
ATOM     45  CA  LEU A   7      23.662  77.194  24.388  0.00  0.00    +0.137 C 
BRANCH  45  46
ATOM     46  C   LEU A   7      22.477  77.855  25.080  0.00  0.00    +0.227 C 
ATOM     47  O   LEU A   7      22.676  78.750  25.897  0.00  0.00    -0.286 OA
ENDBRANCH  45  46
BRANCH  45  48
ATOM     48  CB  LEU A   7      23.732  77.639  22.929  0.00  0.00    +0.028 C 
BRANCH  48  49
ATOM     49  CG  LEU A   7      23.794  79.143  22.715  0.00  0.00    +0.002 C 
ATOM     50  CD2 LEU A   7      24.996  79.747  23.416  0.00  0.00    +0.000 C 
ATOM     51  CD1 LEU A   7      23.821  79.447  21.220  0.00  0.00    +0.000 C 
ENDBRANCH  48  49
ENDBRANCH  45  48
ENDBRANCH  43  45
ENDBRANCH  40  41
BRANCH  40  52
ATOM     52  CB  GLN A   6      25.126  73.212  26.324  0.00  0.00    +0.039 C 
BRANCH  52  53
ATOM     53  CG  GLN A   6      25.261  71.691  26.516  0.00  0.00    +0.087 C 
BRANCH  53  54
ATOM     54  CD  GLN A   6      26.678  71.248  26.789  0.00  0.00    +0.219 C 
ATOM     55  OE1 GLN A   6      27.554  72.064  27.012  0.00  0.00    -0.275 OA
ATOM     56  NE2 GLN A   6      26.917  69.956  26.732  0.00  0.00    -0.329 N 
ATOM     57 HE21 GLN A   6      27.882  69.599  26.880  0.00  0.00    +0.145 HD
ATOM     58 HE22 GLN A   6      26.141  69.292  26.539  0.00  0.00    +0.145 HD
ENDBRANCH  53  54
ENDBRANCH  52  53
ENDBRANCH  40  52
ENDBRANCH  37  40
ENDBRANCH  35  36
BRANCH  35  59
ATOM     59  CB  ASP A   5      22.799  70.840  21.969  0.00  0.00    +0.143 C 
BRANCH  59  60
ATOM     60  CG  ASP A   5      23.697  70.013  22.844  0.00  0.00    +0.367 C 
ATOM     61  OD2 ASP A   5      23.307  69.711  23.988  0.00  0.00    -0.246 OA
ATOM     62  OD1 ASP A   5      24.842  69.722  22.412  0.00  0.00    -0.246 OA
ENDBRANCH  59  60
ENDBRANCH  35  59
ENDBRANCH  33  35
ENDBRANCH   1  31
BRANCH   1  63
ATOM     63  CB  ASN A   4      26.622  74.318  19.712  0.00  0.00    +0.114 C 
BRANCH  63  64
ATOM     64  CG  ASN A   4      25.733  73.505  18.810  0.00  0.00    +0.222 C 
ATOM     65  OD1 ASN A   4      25.954  72.314  18.604  0.00  0.00    -0.275 OA
ATOM     66  ND2 ASN A   4      24.723  74.150  18.251  0.00  0.00    -0.329 N 
ATOM     67 HD21 ASN A   4      24.574  75.159  18.454  0.00  0.00    +0.145 HD
ATOM     68 HD22 ASN A   4      24.078  73.648  17.608  0.00  0.00    +0.145 HD
ENDBRANCH  63  64
ENDBRANCH   1  63
TORSDOF 28
REMARK  Name = ../refined-set-2016/4uac/4uac_pocket.pdb
REMARK  256 active torsions:
REMARK  status: ('A' for Active; 'I' for Inactive)
REMARK    1  A    between atoms: _1  and  _3
REMARK    2  A    between atoms: _3  and  _4
REMARK    3  A    between atoms: _7  and  _8
REMARK    4  A    between atoms: _13  and  _15
REMARK    5  A    between atoms: _15  and  _16
REMARK    6  A    between atoms: _19  and  _21
REMARK    7  A    between atoms: _21  and  _22
REMARK    8  A    between atoms: _21  and  _24
REMARK    9  A    between atoms: _24  and  _25
REMARK   10  A    between atoms: _25  and  _26
REMARK   11  A    between atoms: _29  and  _31
REMARK   12  A    between atoms: _31  and  _32
REMARK   13  A    between atoms: _31  and  _34
REMARK   14  A    between atoms: _34  and  _35
REMARK   15  A    between atoms: _38  and  _40
REMARK   16  A    between atoms: _40  and  _41
REMARK   17  A    between atoms: _40  and  _43
REMARK   18  A    between atoms: _43  and  _44
REMARK   19  A    between atoms: _46  and  _48
REMARK   20  A    between atoms: _48  and  _49
REMARK   21  A    between atoms: _48  and  _51
REMARK   22  A    between atoms: _51  and  _52
REMARK   23  A    between atoms: _54  and  _56
REMARK   24  A    between atoms: _56  and  _57
REMARK   25  A    between atoms: _56  and  _59
REMARK   26  A    between atoms: _59  and  _60
REMARK   27  A    between atoms: _60  and  _61
REMARK   28  A    between atoms: _64  and  _66
REMARK   29  A    between atoms: _66  and  _67
REMARK   30  A    between atoms: _66  and  _69
REMARK   31  A    between atoms: _69  and  _70
REMARK   32  A    between atoms: _72  and  _74
REMARK   33  A    between atoms: _74  and  _75
REMARK   34  A    between atoms: _74  and  _77
REMARK   35  A    between atoms: _77  and  _78
REMARK   36  A    between atoms: _81  and  _83
REMARK   37  A    between atoms: _83  and  _84
REMARK   38  A    between atoms: _87  and  _89
REMARK   39  A    between atoms: _89  and  _90
REMARK   40  A    between atoms: _89  and  _92
REMARK   41  A    between atoms: _92  and  _93
REMARK   42  A    between atoms: _93  and  _94
REMARK   43  A    between atoms: _94  and  _95
REMARK   44  A    between atoms: _95  and  _96
REMARK   45  A    between atoms: _100  and  _102
REMARK   46  A    between atoms: _102  and  _103
REMARK   47  A    between atoms: _102  and  _105
REMARK   48  A    between atoms: _105  and  _106
REMARK   49  A    between atoms: _109  and  _111
REMARK   50  A    between atoms: _111  and  _112
REMARK   51  A    between atoms: _111  and  _114
REMARK   52  A    between atoms: _117  and  _119
REMARK   53  A    between atoms: _119  and  _120
REMARK   54  A    between atoms: _119  and  _122
REMARK   55  A    between atoms: _122  and  _123
REMARK   56  A    between atoms: _126  and  _128
REMARK   57  A    between atoms: _128  and  _129
REMARK   58  A    between atoms: _128  and  _131
REMARK   59  A    between atoms: _131  and  _132
REMARK   60  A    between atoms: _132  and  _133
REMARK   61  A    between atoms: _135  and  _137
REMARK   62  A    between atoms: _137  and  _138
REMARK   63  A    between atoms: _137  and  _140
REMARK   64  A    between atoms: _140  and  _141
REMARK   65  A    between atoms: _147  and  _149
REMARK   66  A    between atoms: _149  and  _150
REMARK   67  A    between atoms: _153  and  _155
REMARK   68  A    between atoms: _155  and  _156
REMARK   69  A    between atoms: _155  and  _158
REMARK   70  A    between atoms: _158  and  _159
REMARK   71  A    between atoms: _164  and  _166
REMARK   72  A    between atoms: _166  and  _167
REMARK   73  A    between atoms: _166  and  _169
REMARK   74  A    between atoms: _169  and  _170
REMARK   75  A    between atoms: _173  and  _175
REMARK   76  A    between atoms: _175  and  _176
REMARK   77  A    between atoms: _175  and  _178
REMARK   78  A    between atoms: _178  and  _179
REMARK   79  A    between atoms: _179  and  _180
REMARK   80  A    between atoms: _185  and  _187
REMARK   81  A    between atoms: _187  and  _188
REMARK   82  A    between atoms: _187  and  _190
REMARK   83  A    between atoms: _190  and  _191
REMARK   84  A    between atoms: _195  and  _196
REMARK   85  A    between atoms: _201  and  _203
REMARK   86  A    between atoms: _203  and  _204
REMARK   87  A    between atoms: _203  and  _206
REMARK   88  A    between atoms: _206  and  _207
REMARK   89  A    between atoms: _212  and  _213
REMARK   90  A    between atoms: _215  and  _217
REMARK   91  A    between atoms: _217  and  _218
REMARK   92  A    between atoms: _217  and  _220
REMARK   93  A    between atoms: _220  and  _221
REMARK   94  A    between atoms: _224  and  _226
REMARK   95  A    between atoms: _226  and  _227
REMARK   96  A    between atoms: _226  and  _229
REMARK   97  A    between atoms: _229  and  _230
REMARK   98  A    between atoms: _232  and  _234
REMARK   99  A    between atoms: _234  and  _235
REMARK  100  A    between atoms: _234  and  _237
REMARK  101  A    between atoms: _237  and  _238
REMARK  102  A    between atoms: _243  and  _245
REMARK  103  A    between atoms: _245  and  _246
REMARK  104  A    between atoms: _245  and  _248
REMARK  105  A    between atoms: _248  and  _249
REMARK  106  A    between atoms: _252  and  _254
REMARK  107  A    between atoms: _254  and  _255
REMARK  108  A    between atoms: _254  and  _257
REMARK  109  A    between atoms: _257  and  _258
REMARK  110  A    between atoms: _269  and  _270
REMARK  111  A    between atoms: _275  and  _277
REMARK  112  A    between atoms: _277  and  _278
REMARK  113  A    between atoms: _277  and  _280
REMARK  114  A    between atoms: _280  and  _281
REMARK  115  A    between atoms: _284  and  _286
REMARK  116  A    between atoms: _286  and  _287
REMARK  117  A    between atoms: _286  and  _289
REMARK  118  A    between atoms: _289  and  _290
REMARK  119  A    between atoms: _295  and  _297
REMARK  120  A    between atoms: _297  and  _298
REMARK  121  A    between atoms: _300  and  _302
REMARK  122  A    between atoms: _302  and  _303
REMARK  123  A    between atoms: _302  and  _305
REMARK  124  A    between atoms: _305  and  _306
REMARK  125  A    between atoms: _316  and  _318
REMARK  126  A    between atoms: _318  and  _319
REMARK  127  A    between atoms: _318  and  _321
REMARK  128  A    between atoms: _321  and  _322
REMARK  129  A    between atoms: _327  and  _328
REMARK  130  A    between atoms: _330  and  _332
REMARK  131  A    between atoms: _332  and  _333
REMARK  132  A    between atoms: _332  and  _335
REMARK  133  A    between atoms: _335  and  _336
REMARK  134  A    between atoms: _339  and  _341
REMARK  135  A    between atoms: _341  and  _342
REMARK  136  A    between atoms: _341  and  _344
REMARK  137  A    between atoms: _344  and  _345
REMARK  138  A    between atoms: _350  and  _352
REMARK  139  A    between atoms: _352  and  _353
REMARK  140  A    between atoms: _352  and  _355
REMARK  141  A    between atoms: _355  and  _356
REMARK  142  A    between atoms: _361  and  _363
REMARK  143  A    between atoms: _363  and  _364
REMARK  144  A    between atoms: _363  and  _366
REMARK  145  A    between atoms: _366  and  _367
REMARK  146  A    between atoms: _367  and  _368
REMARK  147  A    between atoms: _371  and  _373
REMARK  148  A    between atoms: _373  and  _374
REMARK  149  A    between atoms: _376  and  _378
REMARK  150  A    between atoms: _378  and  _379
REMARK  151  A    between atoms: _378  and  _381
REMARK  152  A    between atoms: _381  and  _382
REMARK  153  A    between atoms: _384  and  _386
REMARK  154  A    between atoms: _386  and  _387
REMARK  155  A    between atoms: _386  and  _389
REMARK  156  A    between atoms: _389  and  _390
REMARK  157  A    between atoms: _395  and  _396
REMARK  158  A    between atoms: _398  and  _400
REMARK  159  A    between atoms: _400  and  _401
REMARK  160  A    between atoms: _400  and  _403
REMARK  161  A    between atoms: _403  and  _404
REMARK  162  A    between atoms: _409  and  _411
REMARK  163  A    between atoms: _411  and  _412
REMARK  164  A    between atoms: _414  and  _416
REMARK  165  A    between atoms: _416  and  _417
REMARK  166  A    between atoms: _416  and  _419
REMARK  167  A    between atoms: _419  and  _420
REMARK  168  A    between atoms: _425  and  _427
REMARK  169  A    between atoms: _427  and  _428
REMARK  170  A    between atoms: _427  and  _430
REMARK  171  A    between atoms: _430  and  _431
REMARK  172  A    between atoms: _441  and  _443
REMARK  173  A    between atoms: _443  and  _444
REMARK  174  A    between atoms: _443  and  _446
REMARK  175  A    between atoms: _446  and  _447
REMARK  176  A    between atoms: _452  and  _454
REMARK  177  A    between atoms: _454  and  _455
REMARK  178  A    between atoms: _454  and  _457
REMARK  179  A    between atoms: _457  and  _458
REMARK  180  A    between atoms: _458  and  _459
REMARK  181  A    between atoms: _459  and  _460
REMARK  182  A    between atoms: _460  and  _461
REMARK  183  A    between atoms: _465  and  _467
REMARK  184  A    between atoms: _467  and  _468
REMARK  185  A    between atoms: _467  and  _470
REMARK  186  A    between atoms: _470  and  _471
REMARK  187  A    between atoms: _477  and  _479
REMARK  188  A    between atoms: _479  and  _480
REMARK  189  A    between atoms: _482  and  _484
REMARK  190  A    between atoms: _484  and  _485
REMARK  191  A    between atoms: _484  and  _487
REMARK  192  A    between atoms: _487  and  _488
REMARK  193  A    between atoms: _490  and  _492
REMARK  194  A    between atoms: _492  and  _493
REMARK  195  A    between atoms: _492  and  _495
REMARK  196  A    between atoms: _495  and  _496
REMARK  197  A    between atoms: _496  and  _497
REMARK  198  A    between atoms: _497  and  _498
REMARK  199  A    between atoms: _498  and  _499
REMARK  200  A    between atoms: _503  and  _505
REMARK  201  A    between atoms: _505  and  _506
REMARK  202  A    between atoms: _505  and  _508
REMARK  203  A    between atoms: _508  and  _509
REMARK  204  A    between atoms: _514  and  _516
REMARK  205  A    between atoms: _516  and  _517
REMARK  206  A    between atoms: _516  and  _519
REMARK  207  A    between atoms: _519  and  _520
REMARK  208  A    between atoms: _520  and  _521
REMARK  209  A    between atoms: _521  and  _522
REMARK  210  A    between atoms: _531  and  _533
REMARK  211  A    between atoms: _533  and  _534
REMARK  212  A    between atoms: _533  and  _536
REMARK  213  A    between atoms: _536  and  _537
REMARK  214  A    between atoms: _537  and  _538
REMARK  215  A    between atoms: _543  and  _545
REMARK  216  A    between atoms: _545  and  _546
REMARK  217  A    between atoms: _545  and  _548
REMARK  218  A    between atoms: _548  and  _549
REMARK  219  A    between atoms: _549  and  _550
REMARK  220  A    between atoms: _555  and  _557
REMARK  221  A    between atoms: _557  and  _558
REMARK  222  A    between atoms: _557  and  _560
REMARK  223  A    between atoms: _560  and  _561
REMARK  224  A    between atoms: _564  and  _566
REMARK  225  A    between atoms: _566  and  _567
REMARK  226  A    between atoms: _566  and  _569
REMARK  227  A    between atoms: _569  and  _570
REMARK  228  A    between atoms: _570  and  _571
REMARK  229  A    between atoms: _573  and  _575
REMARK  230  A    between atoms: _575  and  _576
REMARK  231  A    between atoms: _575  and  _578
REMARK  232  A    between atoms: _578  and  _579
REMARK  233  A    between atoms: _581  and  _583
REMARK  234  A    between atoms: _583  and  _584
REMARK  235  A    between atoms: _586  and  _588
REMARK  236  A    between atoms: _588  and  _589
REMARK  237  A    between atoms: _588  and  _591
REMARK  238  A    between atoms: _591  and  _592
REMARK  239  A    between atoms: _597  and  _598
REMARK  240  A    between atoms: _600  and  _602
REMARK  241  A    between atoms: _602  and  _603
REMARK  242  A    between atoms: _602  and  _605
REMARK  243  A    between atoms: _605  and  _606
REMARK  244  A    between atoms: _616  and  _618
REMARK  245  A    between atoms: _618  and  _619
REMARK  246  A    between atoms: _618  and  _621
REMARK  247  A    between atoms: _621  and  _622
REMARK  248  A    between atoms: _625  and  _627
REMARK  249  A    between atoms: _627  and  _628
REMARK  250  A    between atoms: _631  and  _633
REMARK  251  A    between atoms: _633  and  _634
REMARK  252  A    between atoms: _637  and  _639
REMARK  253  A    between atoms: _639  and  _640
REMARK  254  A    between atoms: _639  and  _642
REMARK  255  A    between atoms: _642  and  _643
REMARK  256  A    between atoms: _647  and  _648
REMARK                            x       y       z     vdW  Elec       q    Type
REMARK                         _______ _______ _______ _____ _____    ______ ____
ROOT
ATOM      1  N   PRO A   1      20.349  76.759  27.475  0.00  0.00    -0.212 NA
ATOM      2  CA  PRO A   1      20.446  76.654  28.937  0.00  0.00    +0.137 C 
ATOM      3  CB  PRO A   1      20.752  75.172  29.172  0.00  0.00    +0.027 C 
ATOM      4  CG  PRO A   1      20.286  74.471  27.968  0.00  0.00    +0.021 C 
ATOM      5  CD  PRO A   1      20.271  75.442  26.820  0.00  0.00    +0.089 C 
ENDROOT
BRANCH   2   6
ATOM      6  C   PRO A   1      21.550  77.532  29.521  0.00  0.00    +0.224 C 
ATOM      7  O   PRO A   1      21.380  78.143  30.585  0.00  0.00    -0.287 OA
ENDBRANCH   2   6
TORSDOF 1
REMARK  Name = ../refined-set-2016/4uac/4uac_pocket.pdb
REMARK  256 active torsions:
REMARK  status: ('A' for Active; 'I' for Inactive)
REMARK    1  A    between atoms: _1  and  _3
REMARK    2  A    between atoms: _3  and  _4
REMARK    3  A    between atoms: _7  and  _8
REMARK    4  A    between atoms: _13  and  _15
REMARK    5  A    between atoms: _15  and  _16
REMARK    6  A    between atoms: _19  and  _21
REMARK    7  A    between atoms: _21  and  _22
REMARK    8  A    between atoms: _21  and  _24
REMARK    9  A    between atoms: _24  and  _25
REMARK   10  A    between atoms: _25  and  _26
REMARK   11  A    between atoms: _29  and  _31
REMARK   12  A    between atoms: _31  and  _32
REMARK   13  A    between atoms: _31  and  _34
REMARK   14  A    between atoms: _34  and  _35
REMARK   15  A    between atoms: _38  and  _40
REMARK   16  A    between atoms: _40  and  _41
REMARK   17  A    between atoms: _40  and  _43
REMARK   18  A    between atoms: _43  and  _44
REMARK   19  A    between atoms: _46  and  _48
REMARK   20  A    between atoms: _48  and  _49
REMARK   21  A    between atoms: _48  and  _51
REMARK   22  A    between atoms: _51  and  _52
REMARK   23  A    between atoms: _54  and  _56
REMARK   24  A    between atoms: _56  and  _57
REMARK   25  A    between atoms: _56  and  _59
REMARK   26  A    between atoms: _59  and  _60
REMARK   27  A    between atoms: _60  and  _61
REMARK   28  A    between atoms: _64  and  _66
REMARK   29  A    between atoms: _66  and  _67
REMARK   30  A    between atoms: _66  and  _69
REMARK   31  A    between atoms: _69  and  _70
REMARK   32  A    between atoms: _72  and  _74
REMARK   33  A    between atoms: _74  and  _75
REMARK   34  A    between atoms: _74  and  _77
REMARK   35  A    between atoms: _77  and  _78
REMARK   36  A    between atoms: _81  and  _83
REMARK   37  A    between atoms: _83  and  _84
REMARK   38  A    between atoms: _87  and  _89
REMARK   39  A    between atoms: _89  and  _90
REMARK   40  A    between atoms: _89  and  _92
REMARK   41  A    between atoms: _92  and  _93
REMARK   42  A    between atoms: _93  and  _94
REMARK   43  A    between atoms: _94  and  _95
REMARK   44  A    between atoms: _95  and  _96
REMARK   45  A    between atoms: _100  and  _102
REMARK   46  A    between atoms: _102  and  _103
REMARK   47  A    between atoms: _102  and  _105
REMARK   48  A    between atoms: _105  and  _106
REMARK   49  A    between atoms: _109  and  _111
REMARK   50  A    between atoms: _111  and  _112
REMARK   51  A    between atoms: _111  and  _114
REMARK   52  A    between atoms: _117  and  _119
REMARK   53  A    between atoms: _119  and  _120
REMARK   54  A    between atoms: _119  and  _122
REMARK   55  A    between atoms: _122  and  _123
REMARK   56  A    between atoms: _126  and  _128
REMARK   57  A    between atoms: _128  and  _129
REMARK   58  A    between atoms: _128  and  _131
REMARK   59  A    between atoms: _131  and  _132
REMARK   60  A    between atoms: _132  and  _133
REMARK   61  A    between atoms: _135  and  _137
REMARK   62  A    between atoms: _137  and  _138
REMARK   63  A    between atoms: _137  and  _140
REMARK   64  A    between atoms: _140  and  _141
REMARK   65  A    between atoms: _147  and  _149
REMARK   66  A    between atoms: _149  and  _150
REMARK   67  A    between atoms: _153  and  _155
REMARK   68  A    between atoms: _155  and  _156
REMARK   69  A    between atoms: _155  and  _158
REMARK   70  A    between atoms: _158  and  _159
REMARK   71  A    between atoms: _164  and  _166
REMARK   72  A    between atoms: _166  and  _167
REMARK   73  A    between atoms: _166  and  _169
REMARK   74  A    between atoms: _169  and  _170
REMARK   75  A    between atoms: _173  and  _175
REMARK   76  A    between atoms: _175  and  _176
REMARK   77  A    between atoms: _175  and  _178
REMARK   78  A    between atoms: _178  and  _179
REMARK   79  A    between atoms: _179  and  _180
REMARK   80  A    between atoms: _185  and  _187
REMARK   81  A    between atoms: _187  and  _188
REMARK   82  A    between atoms: _187  and  _190
REMARK   83  A    between atoms: _190  and  _191
REMARK   84  A    between atoms: _195  and  _196
REMARK   85  A    between atoms: _201  and  _203
REMARK   86  A    between atoms: _203  and  _204
REMARK   87  A    between atoms: _203  and  _206
REMARK   88  A    between atoms: _206  and  _207
REMARK   89  A    between atoms: _212  and  _213
REMARK   90  A    between atoms: _215  and  _217
REMARK   91  A    between atoms: _217  and  _218
REMARK   92  A    between atoms: _217  and  _220
REMARK   93  A    between atoms: _220  and  _221
REMARK   94  A    between atoms: _224  and  _226
REMARK   95  A    between atoms: _226  and  _227
REMARK   96  A    between atoms: _226  and  _229
REMARK   97  A    between atoms: _229  and  _230
REMARK   98  A    between atoms: _232  and  _234
REMARK   99  A    between atoms: _234  and  _235
REMARK  100  A    between atoms: _234  and  _237
REMARK  101  A    between atoms: _237  and  _238
REMARK  102  A    between atoms: _243  and  _245
REMARK  103  A    between atoms: _245  and  _246
REMARK  104  A    between atoms: _245  and  _248
REMARK  105  A    between atoms: _248  and  _249
REMARK  106  A    between atoms: _252  and  _254
REMARK  107  A    between atoms: _254  and  _255
REMARK  108  A    between atoms: _254  and  _257
REMARK  109  A    between atoms: _257  and  _258
REMARK  110  A    between atoms: _269  and  _270
REMARK  111  A    between atoms: _275  and  _277
REMARK  112  A    between atoms: _277  and  _278
REMARK  113  A    between atoms: _277  and  _280
REMARK  114  A    between atoms: _280  and  _281
REMARK  115  A    between atoms: _284  and  _286
REMARK  116  A    between atoms: _286  and  _287
REMARK  117  A    between atoms: _286  and  _289
REMARK  118  A    between atoms: _289  and  _290
REMARK  119  A    between atoms: _295  and  _297
REMARK  120  A    between atoms: _297  and  _298
REMARK  121  A    between atoms: _300  and  _302
REMARK  122  A    between atoms: _302  and  _303
REMARK  123  A    between atoms: _302  and  _305
REMARK  124  A    between atoms: _305  and  _306
REMARK  125  A    between atoms: _316  and  _318
REMARK  126  A    between atoms: _318  and  _319
REMARK  127  A    between atoms: _318  and  _321
REMARK  128  A    between atoms: _321  and  _322
REMARK  129  A    between atoms: _327  and  _328
REMARK  130  A    between atoms: _330  and  _332
REMARK  131  A    between atoms: _332  and  _333
REMARK  132  A    between atoms: _332  and  _335
REMARK  133  A    between atoms: _335  and  _336
REMARK  134  A    between atoms: _339  and  _341
REMARK  135  A    between atoms: _341  and  _342
REMARK  136  A    between atoms: _341  and  _344
REMARK  137  A    between atoms: _344  and  _345
REMARK  138  A    between atoms: _350  and  _352
REMARK  139  A    between atoms: _352  and  _353
REMARK  140  A    between atoms: _352  and  _355
REMARK  141  A    between atoms: _355  and  _356
REMARK  142  A    between atoms: _361  and  _363
REMARK  143  A    between atoms: _363  and  _364
REMARK  144  A    between atoms: _363  and  _366
REMARK  145  A    between atoms: _366  and  _367
REMARK  146  A    between atoms: _367  and  _368
REMARK  147  A    between atoms: _371  and  _373
REMARK  148  A    between atoms: _373  and  _374
REMARK  149  A    between atoms: _376  and  _378
REMARK  150  A    between atoms: _378  and  _379
REMARK  151  A    between atoms: _378  and  _381
REMARK  152  A    between atoms: _381  and  _382
REMARK  153  A    between atoms: _384  and  _386
REMARK  154  A    between atoms: _386  and  _387
REMARK  155  A    between atoms: _386  and  _389
REMARK  156  A    between atoms: _389  and  _390
REMARK  157  A    between atoms: _395  and  _396
REMARK  158  A    between atoms: _398  and  _400
REMARK  159  A    between atoms: _400  and  _401
REMARK  160  A    between atoms: _400  and  _403
REMARK  161  A    between atoms: _403  and  _404
REMARK  162  A    between atoms: _409  and  _411
REMARK  163  A    between atoms: _411  and  _412
REMARK  164  A    between atoms: _414  and  _416
REMARK  165  A    between atoms: _416  and  _417
REMARK  166  A    between atoms: _416  and  _419
REMARK  167  A    between atoms: _419  and  _420
REMARK  168  A    between atoms: _425  and  _427
REMARK  169  A    between atoms: _427  and  _428
REMARK  170  A    between atoms: _427  and  _430
REMARK  171  A    between atoms: _430  and  _431
REMARK  172  A    between atoms: _441  and  _443
REMARK  173  A    between atoms: _443  and  _444
REMARK  174  A    between atoms: _443  and  _446
REMARK  175  A    between atoms: _446  and  _447
REMARK  176  A    between atoms: _452  and  _454
REMARK  177  A    between atoms: _454  and  _455
REMARK  178  A    between atoms: _454  and  _457
REMARK  179  A    between atoms: _457  and  _458
REMARK  180  A    between atoms: _458  and  _459
REMARK  181  A    between atoms: _459  and  _460
REMARK  182  A    between atoms: _460  and  _461
REMARK  183  A    between atoms: _465  and  _467
REMARK  184  A    between atoms: _467  and  _468
REMARK  185  A    between atoms: _467  and  _470
REMARK  186  A    between atoms: _470  and  _471
REMARK  187  A    between atoms: _477  and  _479
REMARK  188  A    between atoms: _479  and  _480
REMARK  189  A    between atoms: _482  and  _484
REMARK  190  A    between atoms: _484  and  _485
REMARK  191  A    between atoms: _484  and  _487
REMARK  192  A    between atoms: _487  and  _488
REMARK  193  A    between atoms: _490  and  _492
REMARK  194  A    between atoms: _492  and  _493
REMARK  195  A    between atoms: _492  and  _495
REMARK  196  A    between atoms: _495  and  _496
REMARK  197  A    between atoms: _496  and  _497
REMARK  198  A    between atoms: _497  and  _498
REMARK  199  A    between atoms: _498  and  _499
REMARK  200  A    between atoms: _503  and  _505
REMARK  201  A    between atoms: _505  and  _506
REMARK  202  A    between atoms: _505  and  _508
REMARK  203  A    between atoms: _508  and  _509
REMARK  204  A    between atoms: _514  and  _516
REMARK  205  A    between atoms: _516  and  _517
REMARK  206  A    between atoms: _516  and  _519
REMARK  207  A    between atoms: _519  and  _520
REMARK  208  A    between atoms: _520  and  _521
REMARK  209  A    between atoms: _521  and  _522
REMARK  210  A    between atoms: _531  and  _533
REMARK  211  A    between atoms: _533  and  _534
REMARK  212  A    between atoms: _533  and  _536
REMARK  213  A    between atoms: _536  and  _537
REMARK  214  A    between atoms: _537  and  _538
REMARK  215  A    between atoms: _543  and  _545
REMARK  216  A    between atoms: _545  and  _546
REMARK  217  A    between atoms: _545  and  _548
REMARK  218  A    between atoms: _548  and  _549
REMARK  219  A    between atoms: _549  and  _550
REMARK  220  A    between atoms: _555  and  _557
REMARK  221  A    between atoms: _557  and  _558
REMARK  222  A    between atoms: _557  and  _560
REMARK  223  A    between atoms: _560  and  _561
REMARK  224  A    between atoms: _564  and  _566
REMARK  225  A    between atoms: _566  and  _567
REMARK  226  A    between atoms: _566  and  _569
REMARK  227  A    between atoms: _569  and  _570
REMARK  228  A    between atoms: _570  and  _571
REMARK  229  A    between atoms: _573  and  _575
REMARK  230  A    between atoms: _575  and  _576
REMARK  231  A    between atoms: _575  and  _578
REMARK  232  A    between atoms: _578  and  _579
REMARK  233  A    between atoms: _581  and  _583
REMARK  234  A    between atoms: _583  and  _584
REMARK  235  A    between atoms: _586  and  _588
REMARK  236  A    between atoms: _588  and  _589
REMARK  237  A    between atoms: _588  and  _591
REMARK  238  A    between atoms: _591  and  _592
REMARK  239  A    between atoms: _597  and  _598
REMARK  240  A    between atoms: _600  and  _602
REMARK  241  A    between atoms: _602  and  _603
REMARK  242  A    between atoms: _602  and  _605
REMARK  243  A    between atoms: _605  and  _606
REMARK  244  A    between atoms: _616  and  _618
REMARK  245  A    between atoms: _618  and  _619
REMARK  246  A    between atoms: _618  and  _621
REMARK  247  A    between atoms: _621  and  _622
REMARK  248  A    between atoms: _625  and  _627
REMARK  249  A    between atoms: _627  and  _628
REMARK  250  A    between atoms: _631  and  _633
REMARK  251  A    between atoms: _633  and  _634
REMARK  252  A    between atoms: _637  and  _639
REMARK  253  A    between atoms: _639  and  _640
REMARK  254  A    between atoms: _639  and  _642
REMARK  255  A    between atoms: _642  and  _643
REMARK  256  A    between atoms: _647  and  _648
REMARK                            x       y       z     vdW  Elec       q    Type
REMARK                         _______ _______ _______ _____ _____    ______ ____
ROOT
ATOM      1  CA  ASN A   4      30.164  68.092  16.321  0.00  0.00    +0.158 C 
ENDROOT
BRANCH   1   2
ATOM      2  C   ASN A   4      29.100  67.186  15.730  0.00  0.00    +0.241 C 
ATOM      3  O   ASN A   4      27.953  67.604  15.529  0.00  0.00    -0.273 OA
ATOM      4  N   THR A   5      29.505  65.959  15.432  0.00  0.00    -0.295 N 
ATOM      5  H   THR A   5      30.490  65.690  15.628  0.00  0.00    +0.150 HD
BRANCH   4   6
ATOM      6  CA  THR A   5      28.611  64.980  14.840  0.00  0.00    +0.176 C 
BRANCH   6   7
ATOM      7  C   THR A   5      29.234  63.624  15.062  0.00  0.00    +0.243 C 
ATOM      8  O   THR A   5      30.245  63.523  15.712  0.00  0.00    -0.273 OA
ATOM      9  N   TRP A   6      28.623  62.588  14.515  0.00  0.00    -0.298 N 
ATOM     10  H   TRP A   6      27.769  62.736  13.940  0.00  0.00    +0.150 HD
BRANCH   9  11
ATOM     11  CA  TRP A   6      29.137  61.243  14.712  0.00  0.00    +0.141 C 
BRANCH  11  12
ATOM     12  C   TRP A   6      29.026  60.467  13.406  0.00  0.00    +0.227 C 
ATOM     13  O   TRP A   6      28.404  60.937  12.447  0.00  0.00    -0.286 OA
ENDBRANCH  11  12
BRANCH  11  14
ATOM     14  CB  TRP A   6      28.421  60.554  15.884  0.00  0.00    +0.056 C 
BRANCH  14  15
ATOM     15  CG  TRP A   6      26.924  60.544  15.859  0.00  0.00    -0.002 A 
ATOM     16  CD1 TRP A   6      26.088  61.469  16.425  0.00  0.00    +0.068 A 
ATOM     17  NE1 TRP A   6      24.777  61.102  16.239  0.00  0.00    -0.352 N 
ATOM     18  HE1 TRP A   6      23.947  61.639  16.564  0.00  0.00    +0.166 HD
ATOM     19  CE2 TRP A   6      24.740  59.915  15.557  0.00  0.00    +0.056 A 
ATOM     20  CZ2 TRP A   6      23.650  59.155  15.139  0.00  0.00    +0.017 A 
ATOM     21  CH2 TRP A   6      23.907  57.989  14.471  0.00  0.00    +0.001 A 
ATOM     22  CZ3 TRP A   6      25.216  57.581  14.194  0.00  0.00    +0.000 A 
ATOM     23  CE3 TRP A   6      26.311  58.343  14.610  0.00  0.00    +0.001 A 
ATOM     24  CD2 TRP A   6      26.075  59.537  15.290  0.00  0.00    +0.013 A 
ENDBRANCH  14  15
ENDBRANCH  11  14
ENDBRANCH   9  11
ENDBRANCH   6   7
BRANCH   6  25
ATOM     25  CB  THR A   5      28.359  65.225  13.336  0.00  0.00    +0.137 C 
ATOM     26  CG2 THR A   5      29.594  64.946  12.474  0.00  0.00    +0.034 C 
BRANCH  25  27
ATOM     27  OG1 THR A   5      27.263  64.404  12.922  0.00  0.00    -0.382 OA
ATOM     28  HG1 THR A   5      26.457  64.644  13.444  0.00  0.00    +0.210 HD
ENDBRANCH  25  27
ENDBRANCH   6  25
ENDBRANCH   4   6
ENDBRANCH   1   2
BRANCH   1  31
ATOM     29  C   SER A   3      31.852  69.300  15.063  0.00  0.00    +0.243 C 
ATOM     30  O   SER A   3      32.767  68.656  15.581  0.00  0.00    -0.273 OA
ATOM     31  N   ASN A   4      30.578  69.074  15.322  0.00  0.00    -0.297 N 
ATOM     32  H   ASN A   4      29.852  69.607  14.803  0.00  0.00    +0.150 HD
BRANCH  29  33
ATOM     33  CA  SER A   3      32.136  70.466  14.123  0.00  0.00    +0.178 C 
BRANCH  33  36
ATOM     34  C   THR A   2      33.862  71.521  15.398  0.00  0.00    +0.243 C 
ATOM     35  O   THR A   2      33.017  72.002  16.141  0.00  0.00    -0.273 OA
ATOM     36  N   SER A   3      33.527  70.838  14.313  0.00  0.00    -0.295 N 
ATOM     37  H   SER A   3      34.247  70.573  13.611  0.00  0.00    +0.150 HD
BRANCH  34  38
ATOM     38  CA  THR A   2      35.336  71.740  15.659  0.00  0.00    +0.176 C 
BRANCH  38  40
ATOM     39  C   TYR A   1      36.636  73.620  16.487  0.00  0.00    +0.239 C 
ATOM     40  N   THR A   2      35.505  72.919  16.496  0.00  0.00    -0.295 N 
ATOM     41  H   THR A   2      34.725  73.220  17.114  0.00  0.00    +0.150 HD
ATOM     42  O   TYR A   1      37.627  73.266  15.852  0.00  0.00    -0.274 OA
BRANCH  39  43
ATOM     43  CA  TYR A   1      36.672  74.923  17.243  0.00  0.00    +0.149 C 
BRANCH  43  44
ATOM     44  N   TYR A   1      35.335  75.466  17.541  0.00  0.00    -0.238 NA
ATOM     45  H   TYR A   1      34.643  74.882  18.053  0.00  0.00    +0.142 HD
ENDBRANCH  43  44
BRANCH  43  46
ATOM     46  CB  TYR A   1      37.525  74.769  18.510  0.00  0.00    +0.053 C 
BRANCH  46  47
ATOM     47  CG  TYR A   1      36.957  73.899  19.592  0.00  0.00    -0.020 A 
ATOM     48  CD2 TYR A   1      36.171  74.455  20.586  0.00  0.00    -0.001 A 
ATOM     49  CE2 TYR A   1      35.631  73.685  21.585  0.00  0.00    +0.036 A 
ATOM     50  CZ  TYR A   1      35.899  72.337  21.611  0.00  0.00    +0.134 A 
ATOM     51  CE1 TYR A   1      36.683  71.736  20.633  0.00  0.00    +0.036 A 
ATOM     52  CD1 TYR A   1      37.218  72.539  19.632  0.00  0.00    -0.001 A 
BRANCH  50  53
ATOM     53  OH  TYR A   1      35.357  71.571  22.617  0.00  0.00    -0.506 OA
ATOM     54  HH  TYR A   1      35.638  70.629  22.501  0.00  0.00    +0.292 HD
ENDBRANCH  50  53
ENDBRANCH  46  47
ENDBRANCH  43  46
ENDBRANCH  39  43
ENDBRANCH  38  40
BRANCH  38  55
ATOM     55  CB  THR A   2      35.982  70.493  16.310  0.00  0.00    +0.137 C 
ATOM     56  CG2 THR A   2      35.186  70.031  17.555  0.00  0.00    +0.034 C 
BRANCH  55  57
ATOM     57  OG1 THR A   2      36.052  69.418  15.375  0.00  0.00    -0.382 OA
ATOM     58  HG1 THR A   2      36.599  69.694  14.597  0.00  0.00    +0.210 HD
ENDBRANCH  55  57
ENDBRANCH  38  55
ENDBRANCH  34  38
ENDBRANCH  33  36
BRANCH  33  59
ATOM     59  CB  SER A   3      31.817  70.114  12.666  0.00  0.00    +0.166 C 
BRANCH  59  60
ATOM     60  OG  SER A   3      32.455  68.925  12.257  0.00  0.00    -0.380 OA
ATOM     61  H   SER A   3      33.436  69.032  12.342  0.00  0.00    +0.211 HD
ENDBRANCH  59  60
ENDBRANCH  33  59
ENDBRANCH  29  33
ENDBRANCH   1  31
BRANCH   1  62
ATOM     62  CB  ASN A   4      29.627  68.786  17.564  0.00  0.00    +0.114 C 
BRANCH  62  63
ATOM     63  CG  ASN A   4      29.575  67.863  18.761  0.00  0.00    +0.222 C 
ATOM     64  ND2 ASN A   4      28.583  68.063  19.612  0.00  0.00    -0.329 N 
ATOM     65 HD21 ASN A   4      28.502  67.473  20.465  0.00  0.00    +0.145 HD
ATOM     66 HD22 ASN A   4      27.883  68.810  19.429  0.00  0.00    +0.145 HD
ATOM     67  OD1 ASN A   4      30.439  66.988  18.925  0.00  0.00    -0.275 OA
ENDBRANCH  62  63
ENDBRANCH   1  62
TORSDOF 25
REMARK  Name = ../refined-set-2016/4uac/4uac_pocket.pdb
REMARK  256 active torsions:
REMARK  status: ('A' for Active; 'I' for Inactive)
REMARK    1  A    between atoms: _1  and  _3
REMARK    2  A    between atoms: _3  and  _4
REMARK    3  A    between atoms: _7  and  _8
REMARK    4  A    between atoms: _13  and  _15
REMARK    5  A    between atoms: _15  and  _16
REMARK    6  A    between atoms: _19  and  _21
REMARK    7  A    between atoms: _21  and  _22
REMARK    8  A    between atoms: _21  and  _24
REMARK    9  A    between atoms: _24  and  _25
REMARK   10  A    between atoms: _25  and  _26
REMARK   11  A    between atoms: _29  and  _31
REMARK   12  A    between atoms: _31  and  _32
REMARK   13  A    between atoms: _31  and  _34
REMARK   14  A    between atoms: _34  and  _35
REMARK   15  A    between atoms: _38  and  _40
REMARK   16  A    between atoms: _40  and  _41
REMARK   17  A    between atoms: _40  and  _43
REMARK   18  A    between atoms: _43  and  _44
REMARK   19  A    between atoms: _46  and  _48
REMARK   20  A    between atoms: _48  and  _49
REMARK   21  A    between atoms: _48  and  _51
REMARK   22  A    between atoms: _51  and  _52
REMARK   23  A    between atoms: _54  and  _56
REMARK   24  A    between atoms: _56  and  _57
REMARK   25  A    between atoms: _56  and  _59
REMARK   26  A    between atoms: _59  and  _60
REMARK   27  A    between atoms: _60  and  _61
REMARK   28  A    between atoms: _64  and  _66
REMARK   29  A    between atoms: _66  and  _67
REMARK   30  A    between atoms: _66  and  _69
REMARK   31  A    between atoms: _69  and  _70
REMARK   32  A    between atoms: _72  and  _74
REMARK   33  A    between atoms: _74  and  _75
REMARK   34  A    between atoms: _74  and  _77
REMARK   35  A    between atoms: _77  and  _78
REMARK   36  A    between atoms: _81  and  _83
REMARK   37  A    between atoms: _83  and  _84
REMARK   38  A    between atoms: _87  and  _89
REMARK   39  A    between atoms: _89  and  _90
REMARK   40  A    between atoms: _89  and  _92
REMARK   41  A    between atoms: _92  and  _93
REMARK   42  A    between atoms: _93  and  _94
REMARK   43  A    between atoms: _94  and  _95
REMARK   44  A    between atoms: _95  and  _96
REMARK   45  A    between atoms: _100  and  _102
REMARK   46  A    between atoms: _102  and  _103
REMARK   47  A    between atoms: _102  and  _105
REMARK   48  A    between atoms: _105  and  _106
REMARK   49  A    between atoms: _109  and  _111
REMARK   50  A    between atoms: _111  and  _112
REMARK   51  A    between atoms: _111  and  _114
REMARK   52  A    between atoms: _117  and  _119
REMARK   53  A    between atoms: _119  and  _120
REMARK   54  A    between atoms: _119  and  _122
REMARK   55  A    between atoms: _122  and  _123
REMARK   56  A    between atoms: _126  and  _128
REMARK   57  A    between atoms: _128  and  _129
REMARK   58  A    between atoms: _128  and  _131
REMARK   59  A    between atoms: _131  and  _132
REMARK   60  A    between atoms: _132  and  _133
REMARK   61  A    between atoms: _135  and  _137
REMARK   62  A    between atoms: _137  and  _138
REMARK   63  A    between atoms: _137  and  _140
REMARK   64  A    between atoms: _140  and  _141
REMARK   65  A    between atoms: _147  and  _149
REMARK   66  A    between atoms: _149  and  _150
REMARK   67  A    between atoms: _153  and  _155
REMARK   68  A    between atoms: _155  and  _156
REMARK   69  A    between atoms: _155  and  _158
REMARK   70  A    between atoms: _158  and  _159
REMARK   71  A    between atoms: _164  and  _166
REMARK   72  A    between atoms: _166  and  _167
REMARK   73  A    between atoms: _166  and  _169
REMARK   74  A    between atoms: _169  and  _170
REMARK   75  A    between atoms: _173  and  _175
REMARK   76  A    between atoms: _175  and  _176
REMARK   77  A    between atoms: _175  and  _178
REMARK   78  A    between atoms: _178  and  _179
REMARK   79  A    between atoms: _179  and  _180
REMARK   80  A    between atoms: _185  and  _187
REMARK   81  A    between atoms: _187  and  _188
REMARK   82  A    between atoms: _187  and  _190
REMARK   83  A    between atoms: _190  and  _191
REMARK   84  A    between atoms: _195  and  _196
REMARK   85  A    between atoms: _201  and  _203
REMARK   86  A    between atoms: _203  and  _204
REMARK   87  A    between atoms: _203  and  _206
REMARK   88  A    between atoms: _206  and  _207
REMARK   89  A    between atoms: _212  and  _213
REMARK   90  A    between atoms: _215  and  _217
REMARK   91  A    between atoms: _217  and  _218
REMARK   92  A    between atoms: _217  and  _220
REMARK   93  A    between atoms: _220  and  _221
REMARK   94  A    between atoms: _224  and  _226
REMARK   95  A    between atoms: _226  and  _227
REMARK   96  A    between atoms: _226  and  _229
REMARK   97  A    between atoms: _229  and  _230
REMARK   98  A    between atoms: _232  and  _234
REMARK   99  A    between atoms: _234  and  _235
REMARK  100  A    between atoms: _234  and  _237
REMARK  101  A    between atoms: _237  and  _238
REMARK  102  A    between atoms: _243  and  _245
REMARK  103  A    between atoms: _245  and  _246
REMARK  104  A    between atoms: _245  and  _248
REMARK  105  A    between atoms: _248  and  _249
REMARK  106  A    between atoms: _252  and  _254
REMARK  107  A    between atoms: _254  and  _255
REMARK  108  A    between atoms: _254  and  _257
REMARK  109  A    between atoms: _257  and  _258
REMARK  110  A    between atoms: _269  and  _270
REMARK  111  A    between atoms: _275  and  _277
REMARK  112  A    between atoms: _277  and  _278
REMARK  113  A    between atoms: _277  and  _280
REMARK  114  A    between atoms: _280  and  _281
REMARK  115  A    between atoms: _284  and  _286
REMARK  116  A    between atoms: _286  and  _287
REMARK  117  A    between atoms: _286  and  _289
REMARK  118  A    between atoms: _289  and  _290
REMARK  119  A    between atoms: _295  and  _297
REMARK  120  A    between atoms: _297  and  _298
REMARK  121  A    between atoms: _300  and  _302
REMARK  122  A    between atoms: _302  and  _303
REMARK  123  A    between atoms: _302  and  _305
REMARK  124  A    between atoms: _305  and  _306
REMARK  125  A    between atoms: _316  and  _318
REMARK  126  A    between atoms: _318  and  _319
REMARK  127  A    between atoms: _318  and  _321
REMARK  128  A    between atoms: _321  and  _322
REMARK  129  A    between atoms: _327  and  _328
REMARK  130  A    between atoms: _330  and  _332
REMARK  131  A    between atoms: _332  and  _333
REMARK  132  A    between atoms: _332  and  _335
REMARK  133  A    between atoms: _335  and  _336
REMARK  134  A    between atoms: _339  and  _341
REMARK  135  A    between atoms: _341  and  _342
REMARK  136  A    between atoms: _341  and  _344
REMARK  137  A    between atoms: _344  and  _345
REMARK  138  A    between atoms: _350  and  _352
REMARK  139  A    between atoms: _352  and  _353
REMARK  140  A    between atoms: _352  and  _355
REMARK  141  A    between atoms: _355  and  _356
REMARK  142  A    between atoms: _361  and  _363
REMARK  143  A    between atoms: _363  and  _364
REMARK  144  A    between atoms: _363  and  _366
REMARK  145  A    between atoms: _366  and  _367
REMARK  146  A    between atoms: _367  and  _368
REMARK  147  A    between atoms: _371  and  _373
REMARK  148  A    between atoms: _373  and  _374
REMARK  149  A    between atoms: _376  and  _378
REMARK  150  A    between atoms: _378  and  _379
REMARK  151  A    between atoms: _378  and  _381
REMARK  152  A    between atoms: _381  and  _382
REMARK  153  A    between atoms: _384  and  _386
REMARK  154  A    between atoms: _386  and  _387
REMARK  155  A    between atoms: _386  and  _389
REMARK  156  A    between atoms: _389  and  _390
REMARK  157  A    between atoms: _395  and  _396
REMARK  158  A    between atoms: _398  and  _400
REMARK  159  A    between atoms: _400  and  _401
REMARK  160  A    between atoms: _400  and  _403
REMARK  161  A    between atoms: _403  and  _404
REMARK  162  A    between atoms: _409  and  _411
REMARK  163  A    between atoms: _411  and  _412
REMARK  164  A    between atoms: _414  and  _416
REMARK  165  A    between atoms: _416  and  _417
REMARK  166  A    between atoms: _416  and  _419
REMARK  167  A    between atoms: _419  and  _420
REMARK  168  A    between atoms: _425  and  _427
REMARK  169  A    between atoms: _427  and  _428
REMARK  170  A    between atoms: _427  and  _430
REMARK  171  A    between atoms: _430  and  _431
REMARK  172  A    between atoms: _441  and  _443
REMARK  173  A    between atoms: _443  and  _444
REMARK  174  A    between atoms: _443  and  _446
REMARK  175  A    between atoms: _446  and  _447
REMARK  176  A    between atoms: _452  and  _454
REMARK  177  A    between atoms: _454  and  _455
REMARK  178  A    between atoms: _454  and  _457
REMARK  179  A    between atoms: _457  and  _458
REMARK  180  A    between atoms: _458  and  _459
REMARK  181  A    between atoms: _459  and  _460
REMARK  182  A    between atoms: _460  and  _461
REMARK  183  A    between atoms: _465  and  _467
REMARK  184  A    between atoms: _467  and  _468
REMARK  185  A    between atoms: _467  and  _470
REMARK  186  A    between atoms: _470  and  _471
REMARK  187  A    between atoms: _477  and  _479
REMARK  188  A    between atoms: _479  and  _480
REMARK  189  A    between atoms: _482  and  _484
REMARK  190  A    between atoms: _484  and  _485
REMARK  191  A    between atoms: _484  and  _487
REMARK  192  A    between atoms: _487  and  _488
REMARK  193  A    between atoms: _490  and  _492
REMARK  194  A    between atoms: _492  and  _493
REMARK  195  A    between atoms: _492  and  _495
REMARK  196  A    between atoms: _495  and  _496
REMARK  197  A    between atoms: _496  and  _497
REMARK  198  A    between atoms: _497  and  _498
REMARK  199  A    between atoms: _498  and  _499
REMARK  200  A    between atoms: _503  and  _505
REMARK  201  A    between atoms: _505  and  _506
REMARK  202  A    between atoms: _505  and  _508
REMARK  203  A    between atoms: _508  and  _509
REMARK  204  A    between atoms: _514  and  _516
REMARK  205  A    between atoms: _516  and  _517
REMARK  206  A    between atoms: _516  and  _519
REMARK  207  A    between atoms: _519  and  _520
REMARK  208  A    between atoms: _520  and  _521
REMARK  209  A    between atoms: _521  and  _522
REMARK  210  A    between atoms: _531  and  _533
REMARK  211  A    between atoms: _533  and  _534
REMARK  212  A    between atoms: _533  and  _536
REMARK  213  A    between atoms: _536  and  _537
REMARK  214  A    between atoms: _537  and  _538
REMARK  215  A    between atoms: _543  and  _545
REMARK  216  A    between atoms: _545  and  _546
REMARK  217  A    between atoms: _545  and  _548
REMARK  218  A    between atoms: _548  and  _549
REMARK  219  A    between atoms: _549  and  _550
REMARK  220  A    between atoms: _555  and  _557
REMARK  221  A    between atoms: _557  and  _558
REMARK  222  A    between atoms: _557  and  _560
REMARK  223  A    between atoms: _560  and  _561
REMARK  224  A    between atoms: _564  and  _566
REMARK  225  A    between atoms: _566  and  _567
REMARK  226  A    between atoms: _566  and  _569
REMARK  227  A    between atoms: _569  and  _570
REMARK  228  A    between atoms: _570  and  _571
REMARK  229  A    between atoms: _573  and  _575
REMARK  230  A    between atoms: _575  and  _576
REMARK  231  A    between atoms: _575  and  _578
REMARK  232  A    between atoms: _578  and  _579
REMARK  233  A    between atoms: _581  and  _583
REMARK  234  A    between atoms: _583  and  _584
REMARK  235  A    between atoms: _586  and  _588
REMARK  236  A    between atoms: _588  and  _589
REMARK  237  A    between atoms: _588  and  _591
REMARK  238  A    between atoms: _591  and  _592
REMARK  239  A    between atoms: _597  and  _598
REMARK  240  A    between atoms: _600  and  _602
REMARK  241  A    between atoms: _602  and  _603
REMARK  242  A    between atoms: _602  and  _605
REMARK  243  A    between atoms: _605  and  _606
REMARK  244  A    between atoms: _616  and  _618
REMARK  245  A    between atoms: _618  and  _619
REMARK  246  A    between atoms: _618  and  _621
REMARK  247  A    between atoms: _621  and  _622
REMARK  248  A    between atoms: _625  and  _627
REMARK  249  A    between atoms: _627  and  _628
REMARK  250  A    between atoms: _631  and  _633
REMARK  251  A    between atoms: _633  and  _634
REMARK  252  A    between atoms: _637  and  _639
REMARK  253  A    between atoms: _639  and  _640
REMARK  254  A    between atoms: _639  and  _642
REMARK  255  A    between atoms: _642  and  _643
REMARK  256  A    between atoms: _647  and  _648
REMARK                            x       y       z     vdW  Elec       q    Type
REMARK                         _______ _______ _______ _____ _____    ______ ____
ROOT
ATOM      1  N   PRO A   1      24.613  52.924  20.309  0.00  0.00    -0.212 NA
ATOM      2  CA  PRO A   1      24.271  53.383  21.674  0.00  0.00    +0.137 C 
ATOM      3  CB  PRO A   1      25.297  54.479  21.926  0.00  0.00    +0.027 C 
ATOM      4  CG  PRO A   1      25.529  55.062  20.561  0.00  0.00    +0.021 C 
ATOM      5  CD  PRO A   1      25.372  53.941  19.560  0.00  0.00    +0.089 C 
ENDROOT
BRANCH   2   6
ATOM      6  C   PRO A   1      22.847  53.923  21.802  0.00  0.00    +0.224 C 
ATOM      7  O   PRO A   1      22.623  55.127  21.850  0.00  0.00    -0.287 OA
ENDBRANCH   2   6
TORSDOF 1
REMARK  Name = ../refined-set-2016/4uac/4uac_pocket.pdb
REMARK  256 active torsions:
REMARK  status: ('A' for Active; 'I' for Inactive)
REMARK    1  A    between atoms: _1  and  _3
REMARK    2  A    between atoms: _3  and  _4
REMARK    3  A    between atoms: _7  and  _8
REMARK    4  A    between atoms: _13  and  _15
REMARK    5  A    between atoms: _15  and  _16
REMARK    6  A    between atoms: _19  and  _21
REMARK    7  A    between atoms: _21  and  _22
REMARK    8  A    between atoms: _21  and  _24
REMARK    9  A    between atoms: _24  and  _25
REMARK   10  A    between atoms: _25  and  _26
REMARK   11  A    between atoms: _29  and  _31
REMARK   12  A    between atoms: _31  and  _32
REMARK   13  A    between atoms: _31  and  _34
REMARK   14  A    between atoms: _34  and  _35
REMARK   15  A    between atoms: _38  and  _40
REMARK   16  A    between atoms: _40  and  _41
REMARK   17  A    between atoms: _40  and  _43
REMARK   18  A    between atoms: _43  and  _44
REMARK   19  A    between atoms: _46  and  _48
REMARK   20  A    between atoms: _48  and  _49
REMARK   21  A    between atoms: _48  and  _51
REMARK   22  A    between atoms: _51  and  _52
REMARK   23  A    between atoms: _54  and  _56
REMARK   24  A    between atoms: _56  and  _57
REMARK   25  A    between atoms: _56  and  _59
REMARK   26  A    between atoms: _59  and  _60
REMARK   27  A    between atoms: _60  and  _61
REMARK   28  A    between atoms: _64  and  _66
REMARK   29  A    between atoms: _66  and  _67
REMARK   30  A    between atoms: _66  and  _69
REMARK   31  A    between atoms: _69  and  _70
REMARK   32  A    between atoms: _72  and  _74
REMARK   33  A    between atoms: _74  and  _75
REMARK   34  A    between atoms: _74  and  _77
REMARK   35  A    between atoms: _77  and  _78
REMARK   36  A    between atoms: _81  and  _83
REMARK   37  A    between atoms: _83  and  _84
REMARK   38  A    between atoms: _87  and  _89
REMARK   39  A    between atoms: _89  and  _90
REMARK   40  A    between atoms: _89  and  _92
REMARK   41  A    between atoms: _92  and  _93
REMARK   42  A    between atoms: _93  and  _94
REMARK   43  A    between atoms: _94  and  _95
REMARK   44  A    between atoms: _95  and  _96
REMARK   45  A    between atoms: _100  and  _102
REMARK   46  A    between atoms: _102  and  _103
REMARK   47  A    between atoms: _102  and  _105
REMARK   48  A    between atoms: _105  and  _106
REMARK   49  A    between atoms: _109  and  _111
REMARK   50  A    between atoms: _111  and  _112
REMARK   51  A    between atoms: _111  and  _114
REMARK   52  A    between atoms: _117  and  _119
REMARK   53  A    between atoms: _119  and  _120
REMARK   54  A    between atoms: _119  and  _122
REMARK   55  A    between atoms: _122  and  _123
REMARK   56  A    between atoms: _126  and  _128
REMARK   57  A    between atoms: _128  and  _129
REMARK   58  A    between atoms: _128  and  _131
REMARK   59  A    between atoms: _131  and  _132
REMARK   60  A    between atoms: _132  and  _133
REMARK   61  A    between atoms: _135  and  _137
REMARK   62  A    between atoms: _137  and  _138
REMARK   63  A    between atoms: _137  and  _140
REMARK   64  A    between atoms: _140  and  _141
REMARK   65  A    between atoms: _147  and  _149
REMARK   66  A    between atoms: _149  and  _150
REMARK   67  A    between atoms: _153  and  _155
REMARK   68  A    between atoms: _155  and  _156
REMARK   69  A    between atoms: _155  and  _158
REMARK   70  A    between atoms: _158  and  _159
REMARK   71  A    between atoms: _164  and  _166
REMARK   72  A    between atoms: _166  and  _167
REMARK   73  A    between atoms: _166  and  _169
REMARK   74  A    between atoms: _169  and  _170
REMARK   75  A    between atoms: _173  and  _175
REMARK   76  A    between atoms: _175  and  _176
REMARK   77  A    between atoms: _175  and  _178
REMARK   78  A    between atoms: _178  and  _179
REMARK   79  A    between atoms: _179  and  _180
REMARK   80  A    between atoms: _185  and  _187
REMARK   81  A    between atoms: _187  and  _188
REMARK   82  A    between atoms: _187  and  _190
REMARK   83  A    between atoms: _190  and  _191
REMARK   84  A    between atoms: _195  and  _196
REMARK   85  A    between atoms: _201  and  _203
REMARK   86  A    between atoms: _203  and  _204
REMARK   87  A    between atoms: _203  and  _206
REMARK   88  A    between atoms: _206  and  _207
REMARK   89  A    between atoms: _212  and  _213
REMARK   90  A    between atoms: _215  and  _217
REMARK   91  A    between atoms: _217  and  _218
REMARK   92  A    between atoms: _217  and  _220
REMARK   93  A    between atoms: _220  and  _221
REMARK   94  A    between atoms: _224  and  _226
REMARK   95  A    between atoms: _226  and  _227
REMARK   96  A    between atoms: _226  and  _229
REMARK   97  A    between atoms: _229  and  _230
REMARK   98  A    between atoms: _232  and  _234
REMARK   99  A    between atoms: _234  and  _235
REMARK  100  A    between atoms: _234  and  _237
REMARK  101  A    between atoms: _237  and  _238
REMARK  102  A    between atoms: _243  and  _245
REMARK  103  A    between atoms: _245  and  _246
REMARK  104  A    between atoms: _245  and  _248
REMARK  105  A    between atoms: _248  and  _249
REMARK  106  A    between atoms: _252  and  _254
REMARK  107  A    between atoms: _254  and  _255
REMARK  108  A    between atoms: _254  and  _257
REMARK  109  A    between atoms: _257  and  _258
REMARK  110  A    between atoms: _269  and  _270
REMARK  111  A    between atoms: _275  and  _277
REMARK  112  A    between atoms: _277  and  _278
REMARK  113  A    between atoms: _277  and  _280
REMARK  114  A    between atoms: _280  and  _281
REMARK  115  A    between atoms: _284  and  _286
REMARK  116  A    between atoms: _286  and  _287
REMARK  117  A    between atoms: _286  and  _289
REMARK  118  A    between atoms: _289  and  _290
REMARK  119  A    between atoms: _295  and  _297
REMARK  120  A    between atoms: _297  and  _298
REMARK  121  A    between atoms: _300  and  _302
REMARK  122  A    between atoms: _302  and  _303
REMARK  123  A    between atoms: _302  and  _305
REMARK  124  A    between atoms: _305  and  _306
REMARK  125  A    between atoms: _316  and  _318
REMARK  126  A    between atoms: _318  and  _319
REMARK  127  A    between atoms: _318  and  _321
REMARK  128  A    between atoms: _321  and  _322
REMARK  129  A    between atoms: _327  and  _328
REMARK  130  A    between atoms: _330  and  _332
REMARK  131  A    between atoms: _332  and  _333
REMARK  132  A    between atoms: _332  and  _335
REMARK  133  A    between atoms: _335  and  _336
REMARK  134  A    between atoms: _339  and  _341
REMARK  135  A    between atoms: _341  and  _342
REMARK  136  A    between atoms: _341  and  _344
REMARK  137  A    between atoms: _344  and  _345
REMARK  138  A    between atoms: _350  and  _352
REMARK  139  A    between atoms: _352  and  _353
REMARK  140  A    between atoms: _352  and  _355
REMARK  141  A    between atoms: _355  and  _356
REMARK  142  A    between atoms: _361  and  _363
REMARK  143  A    between atoms: _363  and  _364
REMARK  144  A    between atoms: _363  and  _366
REMARK  145  A    between atoms: _366  and  _367
REMARK  146  A    between atoms: _367  and  _368
REMARK  147  A    between atoms: _371  and  _373
REMARK  148  A    between atoms: _373  and  _374
REMARK  149  A    between atoms: _376  and  _378
REMARK  150  A    between atoms: _378  and  _379
REMARK  151  A    between atoms: _378  and  _381
REMARK  152  A    between atoms: _381  and  _382
REMARK  153  A    between atoms: _384  and  _386
REMARK  154  A    between atoms: _386  and  _387
REMARK  155  A    between atoms: _386  and  _389
REMARK  156  A    between atoms: _389  and  _390
REMARK  157  A    between atoms: _395  and  _396
REMARK  158  A    between atoms: _398  and  _400
REMARK  159  A    between atoms: _400  and  _401
REMARK  160  A    between atoms: _400  and  _403
REMARK  161  A    between atoms: _403  and  _404
REMARK  162  A    between atoms: _409  and  _411
REMARK  163  A    between atoms: _411  and  _412
REMARK  164  A    between atoms: _414  and  _416
REMARK  165  A    between atoms: _416  and  _417
REMARK  166  A    between atoms: _416  and  _419
REMARK  167  A    between atoms: _419  and  _420
REMARK  168  A    between atoms: _425  and  _427
REMARK  169  A    between atoms: _427  and  _428
REMARK  170  A    between atoms: _427  and  _430
REMARK  171  A    between atoms: _430  and  _431
REMARK  172  A    between atoms: _441  and  _443
REMARK  173  A    between atoms: _443  and  _444
REMARK  174  A    between atoms: _443  and  _446
REMARK  175  A    between atoms: _446  and  _447
REMARK  176  A    between atoms: _452  and  _454
REMARK  177  A    between atoms: _454  and  _455
REMARK  178  A    between atoms: _454  and  _457
REMARK  179  A    between atoms: _457  and  _458
REMARK  180  A    between atoms: _458  and  _459
REMARK  181  A    between atoms: _459  and  _460
REMARK  182  A    between atoms: _460  and  _461
REMARK  183  A    between atoms: _465  and  _467
REMARK  184  A    between atoms: _467  and  _468
REMARK  185  A    between atoms: _467  and  _470
REMARK  186  A    between atoms: _470  and  _471
REMARK  187  A    between atoms: _477  and  _479
REMARK  188  A    between atoms: _479  and  _480
REMARK  189  A    between atoms: _482  and  _484
REMARK  190  A    between atoms: _484  and  _485
REMARK  191  A    between atoms: _484  and  _487
REMARK  192  A    between atoms: _487  and  _488
REMARK  193  A    between atoms: _490  and  _492
REMARK  194  A    between atoms: _492  and  _493
REMARK  195  A    between atoms: _492  and  _495
REMARK  196  A    between atoms: _495  and  _496
REMARK  197  A    between atoms: _496  and  _497
REMARK  198  A    between atoms: _497  and  _498
REMARK  199  A    between atoms: _498  and  _499
REMARK  200  A    between atoms: _503  and  _505
REMARK  201  A    between atoms: _505  and  _506
REMARK  202  A    between atoms: _505  and  _508
REMARK  203  A    between atoms: _508  and  _509
REMARK  204  A    between atoms: _514  and  _516
REMARK  205  A    between atoms: _516  and  _517
REMARK  206  A    between atoms: _516  and  _519
REMARK  207  A    between atoms: _519  and  _520
REMARK  208  A    between atoms: _520  and  _521
REMARK  209  A    between atoms: _521  and  _522
REMARK  210  A    between atoms: _531  and  _533
REMARK  211  A    between atoms: _533  and  _534
REMARK  212  A    between atoms: _533  and  _536
REMARK  213  A    between atoms: _536  and  _537
REMARK  214  A    between atoms: _537  and  _538
REMARK  215  A    between atoms: _543  and  _545
REMARK  216  A    between atoms: _545  and  _546
REMARK  217  A    between atoms: _545  and  _548
REMARK  218  A    between atoms: _548  and  _549
REMARK  219  A    between atoms: _549  and  _550
REMARK  220  A    between atoms: _555  and  _557
REMARK  221  A    between atoms: _557  and  _558
REMARK  222  A    between atoms: _557  and  _560
REMARK  223  A    between atoms: _560  and  _561
REMARK  224  A    between atoms: _564  and  _566
REMARK  225  A    between atoms: _566  and  _567
REMARK  226  A    between atoms: _566  and  _569
REMARK  227  A    between atoms: _569  and  _570
REMARK  228  A    between atoms: _570  and  _571
REMARK  229  A    between atoms: _573  and  _575
REMARK  230  A    between atoms: _575  and  _576
REMARK  231  A    between atoms: _575  and  _578
REMARK  232  A    between atoms: _578  and  _579
REMARK  233  A    between atoms: _581  and  _583
REMARK  234  A    between atoms: _583  and  _584
REMARK  235  A    between atoms: _586  and  _588
REMARK  236  A    between atoms: _588  and  _589
REMARK  237  A    between atoms: _588  and  _591
REMARK  238  A    between atoms: _591  and  _592
REMARK  239  A    between atoms: _597  and  _598
REMARK  240  A    between atoms: _600  and  _602
REMARK  241  A    between atoms: _602  and  _603
REMARK  242  A    between atoms: _602  and  _605
REMARK  243  A    between atoms: _605  and  _606
REMARK  244  A    between atoms: _616  and  _618
REMARK  245  A    between atoms: _618  and  _619
REMARK  246  A    between atoms: _618  and  _621
REMARK  247  A    between atoms: _621  and  _622
REMARK  248  A    between atoms: _625  and  _627
REMARK  249  A    between atoms: _627  and  _628
REMARK  250  A    between atoms: _631  and  _633
REMARK  251  A    between atoms: _633  and  _634
REMARK  252  A    between atoms: _637  and  _639
REMARK  253  A    between atoms: _639  and  _640
REMARK  254  A    between atoms: _639  and  _642
REMARK  255  A    between atoms: _642  and  _643
REMARK  256  A    between atoms: _647  and  _648
REMARK                            x       y       z     vdW  Elec       q    Type
REMARK                         _______ _______ _______ _____ _____    ______ ____
ROOT
ATOM      1  CA  TRP A   4      22.337  62.212  20.623  0.00  0.00    +0.153 C 
ENDROOT
BRANCH   1   3
ATOM      2  C   GLY A   3      20.299  61.259  21.513  0.00  0.00    +0.243 C 
ATOM      3  N   TRP A   4      21.578  61.555  21.685  0.00  0.00    -0.297 N 
ATOM      4  H   TRP A   4      22.046  61.318  22.583  0.00  0.00    +0.150 HD
ATOM      5  O   GLY A   3      19.683  61.510  20.467  0.00  0.00    -0.273 OA
BRANCH   2   6
ATOM      6  CA  GLY A   3      19.598  60.594  22.682  0.00  0.00    +0.176 C 
BRANCH   6   8
ATOM      7  C   ASN A   2      21.211  58.852  23.135  0.00  0.00    +0.241 C 
ATOM      8  N   GLY A   3      20.473  59.864  23.578  0.00  0.00    -0.295 N 
ATOM      9  H   GLY A   3      20.524  60.136  24.581  0.00  0.00    +0.150 HD
ATOM     10  O   ASN A   2      21.222  58.513  21.949  0.00  0.00    -0.273 OA
BRANCH   7  11
ATOM     11  CA  ASN A   2      21.993  58.055  24.173  0.00  0.00    +0.158 C 
BRANCH  11  14
ATOM     12  C   ASP A   1      20.761  56.300  25.364  0.00  0.00    +0.239 C 
ATOM     13  O   ASP A   1      20.594  57.005  26.362  0.00  0.00    -0.274 OA
ATOM     14  N   ASN A   2      21.430  56.706  24.283  0.00  0.00    -0.297 N 
ATOM     15  H   ASN A   2      21.556  56.043  23.492  0.00  0.00    +0.150 HD
BRANCH  12  16
ATOM     16  CA  ASP A   1      20.121  54.922  25.267  0.00  0.00    +0.156 C 
BRANCH  16  17
ATOM     17  N   ASP A   1      20.637  54.150  24.121  0.00  0.00    -0.238 NA
ATOM     18  H   ASP A   1      21.503  53.581  24.208  0.00  0.00    +0.142 HD
ENDBRANCH  16  17
BRANCH  16  19
ATOM     19  CB  ASP A   1      20.227  54.122  26.589  0.00  0.00    +0.140 C 
BRANCH  19  20
ATOM     20  CG  ASP A   1      21.619  54.038  27.193  0.00  0.00    +0.367 C 
ATOM     21  OD2 ASP A   1      21.757  53.224  28.160  0.00  0.00    -0.246 OA
ATOM     22  OD1 ASP A   1      22.566  54.717  26.760  0.00  0.00    -0.246 OA
ENDBRANCH  19  20
ENDBRANCH  16  19
ENDBRANCH  12  16
ENDBRANCH  11  14
BRANCH  11  23
ATOM     23  CB  ASN A   2      23.476  57.947  23.821  0.00  0.00    +0.114 C 
BRANCH  23  24
ATOM     24  CG  ASN A   2      24.190  59.284  23.842  0.00  0.00    +0.222 C 
ATOM     25  ND2 ASN A   2      25.435  59.268  24.323  0.00  0.00    -0.329 N 
ATOM     26 HD21 ASN A   2      25.856  58.374  24.647  0.00  0.00    +0.145 HD
ATOM     27 HD22 ASN A   2      25.984  60.150  24.374  0.00  0.00    +0.145 HD
ATOM     28  OD1 ASN A   2      23.634  60.311  23.442  0.00  0.00    -0.275 OA
ENDBRANCH  23  24
ENDBRANCH  11  23
ENDBRANCH   7  11
ENDBRANCH   6   8
ENDBRANCH   2   6
ENDBRANCH   1   3
BRANCH   1  29
ATOM     29  C   TRP A   4      22.515  61.291  19.410  0.00  0.00    +0.241 C 
ATOM     30  N   TYR A   5      22.386  59.978  19.650  0.00  0.00    -0.297 N 
ATOM     31  H   TYR A   5      22.231  59.681  20.635  0.00  0.00    +0.150 HD
ATOM     32  O   TRP A   4      22.731  61.769  18.293  0.00  0.00    -0.273 OA
BRANCH  30  33
ATOM     33  CA  TYR A   5      22.447  58.934  18.628  0.00  0.00    +0.153 C 
BRANCH  33  34
ATOM     34  C   TYR A   5      21.070  58.377  18.215  0.00  0.00    +0.241 C 
ATOM     35  N   LEU A   6      20.169  58.264  19.187  0.00  0.00    -0.298 N 
ATOM     36  H   LEU A   6      20.404  58.629  20.132  0.00  0.00    +0.150 HD
ATOM     37  O   TYR A   5      20.838  58.048  17.051  0.00  0.00    -0.273 OA
BRANCH  35  38
ATOM     38  CA  LEU A   6      18.856  57.644  18.977  0.00  0.00    +0.137 C 
BRANCH  38  39
ATOM     39  C   LEU A   6      18.073  58.294  17.838  0.00  0.00    +0.227 C 
ATOM     40  O   LEU A   6      17.386  57.617  17.040  0.00  0.00    -0.286 OA
ENDBRANCH  38  39
BRANCH  38  41
ATOM     41  CB  LEU A   6      18.021  57.732  20.257  0.00  0.00    +0.028 C 
BRANCH  41  42
ATOM     42  CG  LEU A   6      16.573  57.234  20.187  0.00  0.00    +0.002 C 
ATOM     43  CD2 LEU A   6      15.801  57.670  21.437  0.00  0.00    +0.000 C 
ATOM     44  CD1 LEU A   6      16.556  55.736  20.005  0.00  0.00    +0.000 C 
ENDBRANCH  41  42
ENDBRANCH  38  41
ENDBRANCH  35  38
ENDBRANCH  33  34
BRANCH  33  45
ATOM     45  CB  TYR A   5      23.323  57.787  19.123  0.00  0.00    +0.055 C 
BRANCH  45  46
ATOM     46  CG  TYR A   5      24.770  58.132  19.328  0.00  0.00    -0.020 A 
ATOM     47  CD2 TYR A   5      25.220  58.614  20.540  0.00  0.00    -0.001 A 
ATOM     48  CE2 TYR A   5      26.551  58.928  20.734  0.00  0.00    +0.036 A 
ATOM     49  CZ  TYR A   5      27.447  58.742  19.718  0.00  0.00    +0.134 A 
ATOM     50  CE1 TYR A   5      27.030  58.251  18.493  0.00  0.00    +0.036 A 
ATOM     51  CD1 TYR A   5      25.687  57.946  18.308  0.00  0.00    -0.001 A 
BRANCH  49  52
ATOM     52  OH  TYR A   5      28.755  59.053  19.935  0.00  0.00    -0.506 OA
ATOM     53  HH  TYR A   5      29.104  58.505  20.682  0.00  0.00    +0.292 HD
ENDBRANCH  49  52
ENDBRANCH  45  46
ENDBRANCH  33  45
ENDBRANCH  30  33
ENDBRANCH   1  29
BRANCH   1  54
ATOM     54  CB  TRP A   4      23.687  62.680  21.173  0.00  0.00    +0.057 C 
BRANCH  54  55
ATOM     55  CG  TRP A   4      24.445  63.633  20.317  0.00  0.00    -0.002 A 
ATOM     56  CD1 TRP A   4      24.044  64.882  19.906  0.00  0.00    +0.068 A 
ATOM     57  NE1 TRP A   4      25.020  65.466  19.135  0.00  0.00    -0.352 N 
ATOM     58  CE2 TRP A   4      26.078  64.595  19.042  0.00  0.00    +0.056 A 
ATOM     59  CZ2 TRP A   4      27.305  64.723  18.388  0.00  0.00    +0.017 A 
ATOM     60  CH2 TRP A   4      28.186  63.682  18.476  0.00  0.00    +0.001 A 
ATOM     61  CZ3 TRP A   4      27.879  62.527  19.188  0.00  0.00    +0.000 A 
ATOM     62  CE3 TRP A   4      26.668  62.388  19.831  0.00  0.00    +0.001 A 
ATOM     63  HE1 TRP A   4      24.967  66.407  18.696  0.00  0.00    +0.166 HD
ATOM     64  CD2 TRP A   4      25.741  63.434  19.774  0.00  0.00    +0.013 A 
ENDBRANCH  54  55
ENDBRANCH   1  54
TORSDOF 23
REMARK  Name = ../refined-set-2016/4uac/4uac_pocket.pdb
REMARK  256 active torsions:
REMARK  status: ('A' for Active; 'I' for Inactive)
REMARK    1  A    between atoms: _1  and  _3
REMARK    2  A    between atoms: _3  and  _4
REMARK    3  A    between atoms: _7  and  _8
REMARK    4  A    between atoms: _13  and  _15
REMARK    5  A    between atoms: _15  and  _16
REMARK    6  A    between atoms: _19  and  _21
REMARK    7  A    between atoms: _21  and  _22
REMARK    8  A    between atoms: _21  and  _24
REMARK    9  A    between atoms: _24  and  _25
REMARK   10  A    between atoms: _25  and  _26
REMARK   11  A    between atoms: _29  and  _31
REMARK   12  A    between atoms: _31  and  _32
REMARK   13  A    between atoms: _31  and  _34
REMARK   14  A    between atoms: _34  and  _35
REMARK   15  A    between atoms: _38  and  _40
REMARK   16  A    between atoms: _40  and  _41
REMARK   17  A    between atoms: _40  and  _43
REMARK   18  A    between atoms: _43  and  _44
REMARK   19  A    between atoms: _46  and  _48
REMARK   20  A    between atoms: _48  and  _49
REMARK   21  A    between atoms: _48  and  _51
REMARK   22  A    between atoms: _51  and  _52
REMARK   23  A    between atoms: _54  and  _56
REMARK   24  A    between atoms: _56  and  _57
REMARK   25  A    between atoms: _56  and  _59
REMARK   26  A    between atoms: _59  and  _60
REMARK   27  A    between atoms: _60  and  _61
REMARK   28  A    between atoms: _64  and  _66
REMARK   29  A    between atoms: _66  and  _67
REMARK   30  A    between atoms: _66  and  _69
REMARK   31  A    between atoms: _69  and  _70
REMARK   32  A    between atoms: _72  and  _74
REMARK   33  A    between atoms: _74  and  _75
REMARK   34  A    between atoms: _74  and  _77
REMARK   35  A    between atoms: _77  and  _78
REMARK   36  A    between atoms: _81  and  _83
REMARK   37  A    between atoms: _83  and  _84
REMARK   38  A    between atoms: _87  and  _89
REMARK   39  A    between atoms: _89  and  _90
REMARK   40  A    between atoms: _89  and  _92
REMARK   41  A    between atoms: _92  and  _93
REMARK   42  A    between atoms: _93  and  _94
REMARK   43  A    between atoms: _94  and  _95
REMARK   44  A    between atoms: _95  and  _96
REMARK   45  A    between atoms: _100  and  _102
REMARK   46  A    between atoms: _102  and  _103
REMARK   47  A    between atoms: _102  and  _105
REMARK   48  A    between atoms: _105  and  _106
REMARK   49  A    between atoms: _109  and  _111
REMARK   50  A    between atoms: _111  and  _112
REMARK   51  A    between atoms: _111  and  _114
REMARK   52  A    between atoms: _117  and  _119
REMARK   53  A    between atoms: _119  and  _120
REMARK   54  A    between atoms: _119  and  _122
REMARK   55  A    between atoms: _122  and  _123
REMARK   56  A    between atoms: _126  and  _128
REMARK   57  A    between atoms: _128  and  _129
REMARK   58  A    between atoms: _128  and  _131
REMARK   59  A    between atoms: _131  and  _132
REMARK   60  A    between atoms: _132  and  _133
REMARK   61  A    between atoms: _135  and  _137
REMARK   62  A    between atoms: _137  and  _138
REMARK   63  A    between atoms: _137  and  _140
REMARK   64  A    between atoms: _140  and  _141
REMARK   65  A    between atoms: _147  and  _149
REMARK   66  A    between atoms: _149  and  _150
REMARK   67  A    between atoms: _153  and  _155
REMARK   68  A    between atoms: _155  and  _156
REMARK   69  A    between atoms: _155  and  _158
REMARK   70  A    between atoms: _158  and  _159
REMARK   71  A    between atoms: _164  and  _166
REMARK   72  A    between atoms: _166  and  _167
REMARK   73  A    between atoms: _166  and  _169
REMARK   74  A    between atoms: _169  and  _170
REMARK   75  A    between atoms: _173  and  _175
REMARK   76  A    between atoms: _175  and  _176
REMARK   77  A    between atoms: _175  and  _178
REMARK   78  A    between atoms: _178  and  _179
REMARK   79  A    between atoms: _179  and  _180
REMARK   80  A    between atoms: _185  and  _187
REMARK   81  A    between atoms: _187  and  _188
REMARK   82  A    between atoms: _187  and  _190
REMARK   83  A    between atoms: _190  and  _191
REMARK   84  A    between atoms: _195  and  _196
REMARK   85  A    between atoms: _201  and  _203
REMARK   86  A    between atoms: _203  and  _204
REMARK   87  A    between atoms: _203  and  _206
REMARK   88  A    between atoms: _206  and  _207
REMARK   89  A    between atoms: _212  and  _213
REMARK   90  A    between atoms: _215  and  _217
REMARK   91  A    between atoms: _217  and  _218
REMARK   92  A    between atoms: _217  and  _220
REMARK   93  A    between atoms: _220  and  _221
REMARK   94  A    between atoms: _224  and  _226
REMARK   95  A    between atoms: _226  and  _227
REMARK   96  A    between atoms: _226  and  _229
REMARK   97  A    between atoms: _229  and  _230
REMARK   98  A    between atoms: _232  and  _234
REMARK   99  A    between atoms: _234  and  _235
REMARK  100  A    between atoms: _234  and  _237
REMARK  101  A    between atoms: _237  and  _238
REMARK  102  A    between atoms: _243  and  _245
REMARK  103  A    between atoms: _245  and  _246
REMARK  104  A    between atoms: _245  and  _248
REMARK  105  A    between atoms: _248  and  _249
REMARK  106  A    between atoms: _252  and  _254
REMARK  107  A    between atoms: _254  and  _255
REMARK  108  A    between atoms: _254  and  _257
REMARK  109  A    between atoms: _257  and  _258
REMARK  110  A    between atoms: _269  and  _270
REMARK  111  A    between atoms: _275  and  _277
REMARK  112  A    between atoms: _277  and  _278
REMARK  113  A    between atoms: _277  and  _280
REMARK  114  A    between atoms: _280  and  _281
REMARK  115  A    between atoms: _284  and  _286
REMARK  116  A    between atoms: _286  and  _287
REMARK  117  A    between atoms: _286  and  _289
REMARK  118  A    between atoms: _289  and  _290
REMARK  119  A    between atoms: _295  and  _297
REMARK  120  A    between atoms: _297  and  _298
REMARK  121  A    between atoms: _300  and  _302
REMARK  122  A    between atoms: _302  and  _303
REMARK  123  A    between atoms: _302  and  _305
REMARK  124  A    between atoms: _305  and  _306
REMARK  125  A    between atoms: _316  and  _318
REMARK  126  A    between atoms: _318  and  _319
REMARK  127  A    between atoms: _318  and  _321
REMARK  128  A    between atoms: _321  and  _322
REMARK  129  A    between atoms: _327  and  _328
REMARK  130  A    between atoms: _330  and  _332
REMARK  131  A    between atoms: _332  and  _333
REMARK  132  A    between atoms: _332  and  _335
REMARK  133  A    between atoms: _335  and  _336
REMARK  134  A    between atoms: _339  and  _341
REMARK  135  A    between atoms: _341  and  _342
REMARK  136  A    between atoms: _341  and  _344
REMARK  137  A    between atoms: _344  and  _345
REMARK  138  A    between atoms: _350  and  _352
REMARK  139  A    between atoms: _352  and  _353
REMARK  140  A    between atoms: _352  and  _355
REMARK  141  A    between atoms: _355  and  _356
REMARK  142  A    between atoms: _361  and  _363
REMARK  143  A    between atoms: _363  and  _364
REMARK  144  A    between atoms: _363  and  _366
REMARK  145  A    between atoms: _366  and  _367
REMARK  146  A    between atoms: _367  and  _368
REMARK  147  A    between atoms: _371  and  _373
REMARK  148  A    between atoms: _373  and  _374
REMARK  149  A    between atoms: _376  and  _378
REMARK  150  A    between atoms: _378  and  _379
REMARK  151  A    between atoms: _378  and  _381
REMARK  152  A    between atoms: _381  and  _382
REMARK  153  A    between atoms: _384  and  _386
REMARK  154  A    between atoms: _386  and  _387
REMARK  155  A    between atoms: _386  and  _389
REMARK  156  A    between atoms: _389  and  _390
REMARK  157  A    between atoms: _395  and  _396
REMARK  158  A    between atoms: _398  and  _400
REMARK  159  A    between atoms: _400  and  _401
REMARK  160  A    between atoms: _400  and  _403
REMARK  161  A    between atoms: _403  and  _404
REMARK  162  A    between atoms: _409  and  _411
REMARK  163  A    between atoms: _411  and  _412
REMARK  164  A    between atoms: _414  and  _416
REMARK  165  A    between atoms: _416  and  _417
REMARK  166  A    between atoms: _416  and  _419
REMARK  167  A    between atoms: _419  and  _420
REMARK  168  A    between atoms: _425  and  _427
REMARK  169  A    between atoms: _427  and  _428
REMARK  170  A    between atoms: _427  and  _430
REMARK  171  A    between atoms: _430  and  _431
REMARK  172  A    between atoms: _441  and  _443
REMARK  173  A    between atoms: _443  and  _444
REMARK  174  A    between atoms: _443  and  _446
REMARK  175  A    between atoms: _446  and  _447
REMARK  176  A    between atoms: _452  and  _454
REMARK  177  A    between atoms: _454  and  _455
REMARK  178  A    between atoms: _454  and  _457
REMARK  179  A    between atoms: _457  and  _458
REMARK  180  A    between atoms: _458  and  _459
REMARK  181  A    between atoms: _459  and  _460
REMARK  182  A    between atoms: _460  and  _461
REMARK  183  A    between atoms: _465  and  _467
REMARK  184  A    between atoms: _467  and  _468
REMARK  185  A    between atoms: _467  and  _470
REMARK  186  A    between atoms: _470  and  _471
REMARK  187  A    between atoms: _477  and  _479
REMARK  188  A    between atoms: _479  and  _480
REMARK  189  A    between atoms: _482  and  _484
REMARK  190  A    between atoms: _484  and  _485
REMARK  191  A    between atoms: _484  and  _487
REMARK  192  A    between atoms: _487  and  _488
REMARK  193  A    between atoms: _490  and  _492
REMARK  194  A    between atoms: _492  and  _493
REMARK  195  A    between atoms: _492  and  _495
REMARK  196  A    between atoms: _495  and  _496
REMARK  197  A    between atoms: _496  and  _497
REMARK  198  A    between atoms: _497  and  _498
REMARK  199  A    between atoms: _498  and  _499
REMARK  200  A    between atoms: _503  and  _505
REMARK  201  A    between atoms: _505  and  _506
REMARK  202  A    between atoms: _505  and  _508
REMARK  203  A    between atoms: _508  and  _509
REMARK  204  A    between atoms: _514  and  _516
REMARK  205  A    between atoms: _516  and  _517
REMARK  206  A    between atoms: _516  and  _519
REMARK  207  A    between atoms: _519  and  _520
REMARK  208  A    between atoms: _520  and  _521
REMARK  209  A    between atoms: _521  and  _522
REMARK  210  A    between atoms: _531  and  _533
REMARK  211  A    between atoms: _533  and  _534
REMARK  212  A    between atoms: _533  and  _536
REMARK  213  A    between atoms: _536  and  _537
REMARK  214  A    between atoms: _537  and  _538
REMARK  215  A    between atoms: _543  and  _545
REMARK  216  A    between atoms: _545  and  _546
REMARK  217  A    between atoms: _545  and  _548
REMARK  218  A    between atoms: _548  and  _549
REMARK  219  A    between atoms: _549  and  _550
REMARK  220  A    between atoms: _555  and  _557
REMARK  221  A    between atoms: _557  and  _558
REMARK  222  A    between atoms: _557  and  _560
REMARK  223  A    between atoms: _560  and  _561
REMARK  224  A    between atoms: _564  and  _566
REMARK  225  A    between atoms: _566  and  _567
REMARK  226  A    between atoms: _566  and  _569
REMARK  227  A    between atoms: _569  and  _570
REMARK  228  A    between atoms: _570  and  _571
REMARK  229  A    between atoms: _573  and  _575
REMARK  230  A    between atoms: _575  and  _576
REMARK  231  A    between atoms: _575  and  _578
REMARK  232  A    between atoms: _578  and  _579
REMARK  233  A    between atoms: _581  and  _583
REMARK  234  A    between atoms: _583  and  _584
REMARK  235  A    between atoms: _586  and  _588
REMARK  236  A    between atoms: _588  and  _589
REMARK  237  A    between atoms: _588  and  _591
REMARK  238  A    between atoms: _591  and  _592
REMARK  239  A    between atoms: _597  and  _598
REMARK  240  A    between atoms: _600  and  _602
REMARK  241  A    between atoms: _602  and  _603
REMARK  242  A    between atoms: _602  and  _605
REMARK  243  A    between atoms: _605  and  _606
REMARK  244  A    between atoms: _616  and  _618
REMARK  245  A    between atoms: _618  and  _619
REMARK  246  A    between atoms: _618  and  _621
REMARK  247  A    between atoms: _621  and  _622
REMARK  248  A    between atoms: _625  and  _627
REMARK  249  A    between atoms: _627  and  _628
REMARK  250  A    between atoms: _631  and  _633
REMARK  251  A    between atoms: _633  and  _634
REMARK  252  A    between atoms: _637  and  _639
REMARK  253  A    between atoms: _639  and  _640
REMARK  254  A    between atoms: _639  and  _642
REMARK  255  A    between atoms: _642  and  _643
REMARK  256  A    between atoms: _647  and  _648
REMARK                            x       y       z     vdW  Elec       q    Type
REMARK                         _______ _______ _______ _____ _____    ______ ____
ROOT
ATOM      1  C   ASN A   2      26.961  56.194  26.176  0.00  0.00    +0.241 C 
ATOM      2  N   GLU A   3      28.148  56.009  26.741  0.00  0.00    -0.297 N 
ATOM      3  H   GLU A   3      28.273  55.321  27.511  0.00  0.00    +0.150 HD
ATOM      4  O   ASN A   2      26.800  56.970  25.212  0.00  0.00    -0.273 OA
ENDROOT
BRANCH   2   5
ATOM      5  CA  GLU A   3      29.279  56.804  26.247  0.00  0.00    +0.149 C 
BRANCH   5   6
ATOM      6  C   GLU A   3      30.322  55.989  25.480  0.00  0.00    +0.241 C 
ATOM      7  O   GLU A   3      31.417  56.460  25.210  0.00  0.00    -0.273 OA
ATOM      8  N   GLY A   4      29.953  54.775  25.086  0.00  0.00    -0.295 N 
ATOM      9  H   GLY A   4      29.138  54.312  25.538  0.00  0.00    +0.150 HD
BRANCH   8  10
ATOM     10  CA  GLY A   4      30.674  54.090  24.034  0.00  0.00    +0.176 C 
BRANCH  10  11
ATOM     11  C   GLY A   4      31.919  53.323  24.452  0.00  0.00    +0.243 C 
ATOM     12  N   SER A   5      32.096  53.091  25.744  0.00  0.00    -0.296 N 
ATOM     13  H   SER A   5      31.422  53.465  26.442  0.00  0.00    +0.150 HD
ATOM     14  O   GLY A   4      32.709  52.936  23.593  0.00  0.00    -0.273 OA
BRANCH  12  15
ATOM     15  CA  SER A   5      33.253  52.300  26.179  0.00  0.00    +0.166 C 
BRANCH  15  16
ATOM     16  CB  SER A   5      33.037  50.828  25.833  0.00  0.00    +0.229 C 
ATOM     17  OG  SER A   5      33.989  50.108  25.537  0.00  0.00    -0.286 OA
ENDBRANCH  15  16
BRANCH  15  18
ATOM     18  C   SER A   5      33.527  52.493  27.668  0.00  0.00    +0.165 C 
BRANCH  18  19
ATOM     19  O   SER A   5      32.453  52.064  28.475  0.00  0.00    -0.380 OA
ATOM     20  H   SER A   5      31.641  52.582  28.244  0.00  0.00    +0.211 HD
ENDBRANCH  18  19
ENDBRANCH  15  18
ENDBRANCH  12  15
ENDBRANCH  10  11
ENDBRANCH   8  10
ENDBRANCH   5   6
BRANCH   5  21
ATOM     21  CB  GLU A   3      29.879  57.586  27.409  0.00  0.00    +0.041 C 
BRANCH  21  22
ATOM     22  CG  GLU A   3      29.006  58.826  27.693  0.00  0.00    +0.116 C 
BRANCH  22  23
ATOM     23  CD  GLU A   3      29.547  59.713  28.785  0.00  0.00    +0.365 C 
ATOM     24  OE2 GLU A   3      30.183  59.189  29.728  0.00  0.00    -0.246 OA
ATOM     25  OE1 GLU A   3      29.324  60.938  28.699  0.00  0.00    -0.246 OA
ENDBRANCH  22  23
ENDBRANCH  21  22
ENDBRANCH   5  21
ENDBRANCH   2   5
BRANCH   1  26
ATOM     26  CA  ASN A   2      25.777  55.405  26.721  0.00  0.00    +0.158 C 
BRANCH  26  28
ATOM     27  C   ASN A   1      26.610  53.234  26.017  0.00  0.00    +0.239 C 
ATOM     28  N   ASN A   2      26.070  54.001  26.956  0.00  0.00    -0.297 N 
ATOM     29  H   ASN A   2      25.851  53.586  27.884  0.00  0.00    +0.150 HD
ATOM     30  O   ASN A   1      27.050  53.674  24.947  0.00  0.00    -0.274 OA
BRANCH  27  31
ATOM     31  CA  ASN A   1      26.558  51.730  26.287  0.00  0.00    +0.154 C 
BRANCH  31  32
ATOM     32  N   ASN A   1      26.971  50.959  25.135  0.00  0.00    -0.238 NA
ATOM     33  H   ASN A   1      27.959  50.649  25.039  0.00  0.00    +0.142 HD
ENDBRANCH  31  32
BRANCH  31  34
ATOM     34  CB  ASN A   1      27.363  51.358  27.545  0.00  0.00    +0.111 C 
BRANCH  34  35
ATOM     35  CG  ASN A   1      28.851  51.576  27.420  0.00  0.00    +0.221 C 
ATOM     36  ND2 ASN A   1      29.555  51.273  28.511  0.00  0.00    -0.329 N 
ATOM     37 HD21 ASN A   1      29.069  50.932  29.365  0.00  0.00    +0.145 HD
ATOM     38 HD22 ASN A   1      30.590  51.378  28.508  0.00  0.00    +0.145 HD
ATOM     39  OD1 ASN A   1      29.376  51.980  26.393  0.00  0.00    -0.275 OA
ENDBRANCH  34  35
ENDBRANCH  31  34
ENDBRANCH  27  31
ENDBRANCH  26  28
BRANCH  26  40
ATOM     40  CB  ASN A   2      25.268  56.033  28.015  0.00  0.00    +0.114 C 
BRANCH  40  41
ATOM     41  CG  ASN A   2      24.754  57.426  27.815  0.00  0.00    +0.222 C 
ATOM     42  OD1 ASN A   2      25.476  58.402  28.039  0.00  0.00    -0.275 OA
ATOM     43  ND2 ASN A   2      23.524  57.535  27.354  0.00  0.00    -0.329 N 
ATOM     44 HD21 ASN A   2      22.956  56.681  27.182  0.00  0.00    +0.145 HD
ATOM     45 HD22 ASN A   2      23.122  58.475  27.163  0.00  0.00    +0.145 HD
ENDBRANCH  40  41
ENDBRANCH  26  40
ENDBRANCH   1  26
TORSDOF 19
REMARK  Name = ../refined-set-2016/4uac/4uac_pocket.pdb
REMARK  256 active torsions:
REMARK  status: ('A' for Active; 'I' for Inactive)
REMARK    1  A    between atoms: _1  and  _3
REMARK    2  A    between atoms: _3  and  _4
REMARK    3  A    between atoms: _7  and  _8
REMARK    4  A    between atoms: _13  and  _15
REMARK    5  A    between atoms: _15  and  _16
REMARK    6  A    between atoms: _19  and  _21
REMARK    7  A    between atoms: _21  and  _22
REMARK    8  A    between atoms: _21  and  _24
REMARK    9  A    between atoms: _24  and  _25
REMARK   10  A    between atoms: _25  and  _26
REMARK   11  A    between atoms: _29  and  _31
REMARK   12  A    between atoms: _31  and  _32
REMARK   13  A    between atoms: _31  and  _34
REMARK   14  A    between atoms: _34  and  _35
REMARK   15  A    between atoms: _38  and  _40
REMARK   16  A    between atoms: _40  and  _41
REMARK   17  A    between atoms: _40  and  _43
REMARK   18  A    between atoms: _43  and  _44
REMARK   19  A    between atoms: _46  and  _48
REMARK   20  A    between atoms: _48  and  _49
REMARK   21  A    between atoms: _48  and  _51
REMARK   22  A    between atoms: _51  and  _52
REMARK   23  A    between atoms: _54  and  _56
REMARK   24  A    between atoms: _56  and  _57
REMARK   25  A    between atoms: _56  and  _59
REMARK   26  A    between atoms: _59  and  _60
REMARK   27  A    between atoms: _60  and  _61
REMARK   28  A    between atoms: _64  and  _66
REMARK   29  A    between atoms: _66  and  _67
REMARK   30  A    between atoms: _66  and  _69
REMARK   31  A    between atoms: _69  and  _70
REMARK   32  A    between atoms: _72  and  _74
REMARK   33  A    between atoms: _74  and  _75
REMARK   34  A    between atoms: _74  and  _77
REMARK   35  A    between atoms: _77  and  _78
REMARK   36  A    between atoms: _81  and  _83
REMARK   37  A    between atoms: _83  and  _84
REMARK   38  A    between atoms: _87  and  _89
REMARK   39  A    between atoms: _89  and  _90
REMARK   40  A    between atoms: _89  and  _92
REMARK   41  A    between atoms: _92  and  _93
REMARK   42  A    between atoms: _93  and  _94
REMARK   43  A    between atoms: _94  and  _95
REMARK   44  A    between atoms: _95  and  _96
REMARK   45  A    between atoms: _100  and  _102
REMARK   46  A    between atoms: _102  and  _103
REMARK   47  A    between atoms: _102  and  _105
REMARK   48  A    between atoms: _105  and  _106
REMARK   49  A    between atoms: _109  and  _111
REMARK   50  A    between atoms: _111  and  _112
REMARK   51  A    between atoms: _111  and  _114
REMARK   52  A    between atoms: _117  and  _119
REMARK   53  A    between atoms: _119  and  _120
REMARK   54  A    between atoms: _119  and  _122
REMARK   55  A    between atoms: _122  and  _123
REMARK   56  A    between atoms: _126  and  _128
REMARK   57  A    between atoms: _128  and  _129
REMARK   58  A    between atoms: _128  and  _131
REMARK   59  A    between atoms: _131  and  _132
REMARK   60  A    between atoms: _132  and  _133
REMARK   61  A    between atoms: _135  and  _137
REMARK   62  A    between atoms: _137  and  _138
REMARK   63  A    between atoms: _137  and  _140
REMARK   64  A    between atoms: _140  and  _141
REMARK   65  A    between atoms: _147  and  _149
REMARK   66  A    between atoms: _149  and  _150
REMARK   67  A    between atoms: _153  and  _155
REMARK   68  A    between atoms: _155  and  _156
REMARK   69  A    between atoms: _155  and  _158
REMARK   70  A    between atoms: _158  and  _159
REMARK   71  A    between atoms: _164  and  _166
REMARK   72  A    between atoms: _166  and  _167
REMARK   73  A    between atoms: _166  and  _169
REMARK   74  A    between atoms: _169  and  _170
REMARK   75  A    between atoms: _173  and  _175
REMARK   76  A    between atoms: _175  and  _176
REMARK   77  A    between atoms: _175  and  _178
REMARK   78  A    between atoms: _178  and  _179
REMARK   79  A    between atoms: _179  and  _180
REMARK   80  A    between atoms: _185  and  _187
REMARK   81  A    between atoms: _187  and  _188
REMARK   82  A    between atoms: _187  and  _190
REMARK   83  A    between atoms: _190  and  _191
REMARK   84  A    between atoms: _195  and  _196
REMARK   85  A    between atoms: _201  and  _203
REMARK   86  A    between atoms: _203  and  _204
REMARK   87  A    between atoms: _203  and  _206
REMARK   88  A    between atoms: _206  and  _207
REMARK   89  A    between atoms: _212  and  _213
REMARK   90  A    between atoms: _215  and  _217
REMARK   91  A    between atoms: _217  and  _218
REMARK   92  A    between atoms: _217  and  _220
REMARK   93  A    between atoms: _220  and  _221
REMARK   94  A    between atoms: _224  and  _226
REMARK   95  A    between atoms: _226  and  _227
REMARK   96  A    between atoms: _226  and  _229
REMARK   97  A    between atoms: _229  and  _230
REMARK   98  A    between atoms: _232  and  _234
REMARK   99  A    between atoms: _234  and  _235
REMARK  100  A    between atoms: _234  and  _237
REMARK  101  A    between atoms: _237  and  _238
REMARK  102  A    between atoms: _243  and  _245
REMARK  103  A    between atoms: _245  and  _246
REMARK  104  A    between atoms: _245  and  _248
REMARK  105  A    between atoms: _248  and  _249
REMARK  106  A    between atoms: _252  and  _254
REMARK  107  A    between atoms: _254  and  _255
REMARK  108  A    between atoms: _254  and  _257
REMARK  109  A    between atoms: _257  and  _258
REMARK  110  A    between atoms: _269  and  _270
REMARK  111  A    between atoms: _275  and  _277
REMARK  112  A    between atoms: _277  and  _278
REMARK  113  A    between atoms: _277  and  _280
REMARK  114  A    between atoms: _280  and  _281
REMARK  115  A    between atoms: _284  and  _286
REMARK  116  A    between atoms: _286  and  _287
REMARK  117  A    between atoms: _286  and  _289
REMARK  118  A    between atoms: _289  and  _290
REMARK  119  A    between atoms: _295  and  _297
REMARK  120  A    between atoms: _297  and  _298
REMARK  121  A    between atoms: _300  and  _302
REMARK  122  A    between atoms: _302  and  _303
REMARK  123  A    between atoms: _302  and  _305
REMARK  124  A    between atoms: _305  and  _306
REMARK  125  A    between atoms: _316  and  _318
REMARK  126  A    between atoms: _318  and  _319
REMARK  127  A    between atoms: _318  and  _321
REMARK  128  A    between atoms: _321  and  _322
REMARK  129  A    between atoms: _327  and  _328
REMARK  130  A    between atoms: _330  and  _332
REMARK  131  A    between atoms: _332  and  _333
REMARK  132  A    between atoms: _332  and  _335
REMARK  133  A    between atoms: _335  and  _336
REMARK  134  A    between atoms: _339  and  _341
REMARK  135  A    between atoms: _341  and  _342
REMARK  136  A    between atoms: _341  and  _344
REMARK  137  A    between atoms: _344  and  _345
REMARK  138  A    between atoms: _350  and  _352
REMARK  139  A    between atoms: _352  and  _353
REMARK  140  A    between atoms: _352  and  _355
REMARK  141  A    between atoms: _355  and  _356
REMARK  142  A    between atoms: _361  and  _363
REMARK  143  A    between atoms: _363  and  _364
REMARK  144  A    between atoms: _363  and  _366
REMARK  145  A    between atoms: _366  and  _367
REMARK  146  A    between atoms: _367  and  _368
REMARK  147  A    between atoms: _371  and  _373
REMARK  148  A    between atoms: _373  and  _374
REMARK  149  A    between atoms: _376  and  _378
REMARK  150  A    between atoms: _378  and  _379
REMARK  151  A    between atoms: _378  and  _381
REMARK  152  A    between atoms: _381  and  _382
REMARK  153  A    between atoms: _384  and  _386
REMARK  154  A    between atoms: _386  and  _387
REMARK  155  A    between atoms: _386  and  _389
REMARK  156  A    between atoms: _389  and  _390
REMARK  157  A    between atoms: _395  and  _396
REMARK  158  A    between atoms: _398  and  _400
REMARK  159  A    between atoms: _400  and  _401
REMARK  160  A    between atoms: _400  and  _403
REMARK  161  A    between atoms: _403  and  _404
REMARK  162  A    between atoms: _409  and  _411
REMARK  163  A    between atoms: _411  and  _412
REMARK  164  A    between atoms: _414  and  _416
REMARK  165  A    between atoms: _416  and  _417
REMARK  166  A    between atoms: _416  and  _419
REMARK  167  A    between atoms: _419  and  _420
REMARK  168  A    between atoms: _425  and  _427
REMARK  169  A    between atoms: _427  and  _428
REMARK  170  A    between atoms: _427  and  _430
REMARK  171  A    between atoms: _430  and  _431
REMARK  172  A    between atoms: _441  and  _443
REMARK  173  A    between atoms: _443  and  _444
REMARK  174  A    between atoms: _443  and  _446
REMARK  175  A    between atoms: _446  and  _447
REMARK  176  A    between atoms: _452  and  _454
REMARK  177  A    between atoms: _454  and  _455
REMARK  178  A    between atoms: _454  and  _457
REMARK  179  A    between atoms: _457  and  _458
REMARK  180  A    between atoms: _458  and  _459
REMARK  181  A    between atoms: _459  and  _460
REMARK  182  A    between atoms: _460  and  _461
REMARK  183  A    between atoms: _465  and  _467
REMARK  184  A    between atoms: _467  and  _468
REMARK  185  A    between atoms: _467  and  _470
REMARK  186  A    between atoms: _470  and  _471
REMARK  187  A    between atoms: _477  and  _479
REMARK  188  A    between atoms: _479  and  _480
REMARK  189  A    between atoms: _482  and  _484
REMARK  190  A    between atoms: _484  and  _485
REMARK  191  A    between atoms: _484  and  _487
REMARK  192  A    between atoms: _487  and  _488
REMARK  193  A    between atoms: _490  and  _492
REMARK  194  A    between atoms: _492  and  _493
REMARK  195  A    between atoms: _492  and  _495
REMARK  196  A    between atoms: _495  and  _496
REMARK  197  A    between atoms: _496  and  _497
REMARK  198  A    between atoms: _497  and  _498
REMARK  199  A    between atoms: _498  and  _499
REMARK  200  A    between atoms: _503  and  _505
REMARK  201  A    between atoms: _505  and  _506
REMARK  202  A    between atoms: _505  and  _508
REMARK  203  A    between atoms: _508  and  _509
REMARK  204  A    between atoms: _514  and  _516
REMARK  205  A    between atoms: _516  and  _517
REMARK  206  A    between atoms: _516  and  _519
REMARK  207  A    between atoms: _519  and  _520
REMARK  208  A    between atoms: _520  and  _521
REMARK  209  A    between atoms: _521  and  _522
REMARK  210  A    between atoms: _531  and  _533
REMARK  211  A    between atoms: _533  and  _534
REMARK  212  A    between atoms: _533  and  _536
REMARK  213  A    between atoms: _536  and  _537
REMARK  214  A    between atoms: _537  and  _538
REMARK  215  A    between atoms: _543  and  _545
REMARK  216  A    between atoms: _545  and  _546
REMARK  217  A    between atoms: _545  and  _548
REMARK  218  A    between atoms: _548  and  _549
REMARK  219  A    between atoms: _549  and  _550
REMARK  220  A    between atoms: _555  and  _557
REMARK  221  A    between atoms: _557  and  _558
REMARK  222  A    between atoms: _557  and  _560
REMARK  223  A    between atoms: _560  and  _561
REMARK  224  A    between atoms: _564  and  _566
REMARK  225  A    between atoms: _566  and  _567
REMARK  226  A    between atoms: _566  and  _569
REMARK  227  A    between atoms: _569  and  _570
REMARK  228  A    between atoms: _570  and  _571
REMARK  229  A    between atoms: _573  and  _575
REMARK  230  A    between atoms: _575  and  _576
REMARK  231  A    between atoms: _575  and  _578
REMARK  232  A    between atoms: _578  and  _579
REMARK  233  A    between atoms: _581  and  _583
REMARK  234  A    between atoms: _583  and  _584
REMARK  235  A    between atoms: _586  and  _588
REMARK  236  A    between atoms: _588  and  _589
REMARK  237  A    between atoms: _588  and  _591
REMARK  238  A    between atoms: _591  and  _592
REMARK  239  A    between atoms: _597  and  _598
REMARK  240  A    between atoms: _600  and  _602
REMARK  241  A    between atoms: _602  and  _603
REMARK  242  A    between atoms: _602  and  _605
REMARK  243  A    between atoms: _605  and  _606
REMARK  244  A    between atoms: _616  and  _618
REMARK  245  A    between atoms: _618  and  _619
REMARK  246  A    between atoms: _618  and  _621
REMARK  247  A    between atoms: _621  and  _622
REMARK  248  A    between atoms: _625  and  _627
REMARK  249  A    between atoms: _627  and  _628
REMARK  250  A    between atoms: _631  and  _633
REMARK  251  A    between atoms: _633  and  _634
REMARK  252  A    between atoms: _637  and  _639
REMARK  253  A    between atoms: _639  and  _640
REMARK  254  A    between atoms: _639  and  _642
REMARK  255  A    between atoms: _642  and  _643
REMARK  256  A    between atoms: _647  and  _648
REMARK                            x       y       z     vdW  Elec       q    Type
REMARK                         _______ _______ _______ _____ _____    ______ ____
ROOT
ATOM      1  CG  TYR A   1      32.666  52.209  18.103  0.00  0.00    -0.020 A 
ATOM      2  CD2 TYR A   1      31.836  52.188  19.225  0.00  0.00    -0.001 A 
ATOM      3  CE2 TYR A   1      32.145  52.945  20.369  0.00  0.00    +0.036 A 
ATOM      4  CZ  TYR A   1      33.298  53.721  20.390  0.00  0.00    +0.134 A 
ATOM      5  CE1 TYR A   1      34.136  53.740  19.305  0.00  0.00    +0.036 A 
ATOM      6  CD1 TYR A   1      33.825  52.988  18.172  0.00  0.00    -0.001 A 
ENDROOT
BRANCH   4   7
ATOM      7  OH  TYR A   1      33.624  54.463  21.494  0.00  0.00    -0.506 OA
ATOM      8  HH  TYR A   1      32.926  54.346  22.187  0.00  0.00    +0.292 HD
ENDBRANCH   4   7
BRANCH   1   9
ATOM      9  CB  TYR A   1      32.408  51.337  16.886  0.00  0.00    +0.051 C 
BRANCH   9  10
ATOM     10  CA  TYR A   1      31.019  51.336  16.247  0.00  0.00    +0.137 C 
BRANCH  10  11
ATOM     11  N   TYR A   1      31.050  50.493  15.059  0.00  0.00    -0.239 NA
ATOM     12  H   TYR A   1      31.439  50.900  14.185  0.00  0.00    +0.142 HD
ENDBRANCH  10  11
BRANCH  10  13
ATOM     13  C   TYR A   1      30.602  52.731  15.803  0.00  0.00    +0.224 C 
ATOM     14  O   TYR A   1      31.229  53.315  14.924  0.00  0.00    -0.287 OA
ENDBRANCH  10  13
ENDBRANCH   9  10
ENDBRANCH   1   9
TORSDOF 5
REMARK  Name = ../refined-set-2016/4uac/4uac_pocket.pdb
REMARK  256 active torsions:
REMARK  status: ('A' for Active; 'I' for Inactive)
REMARK    1  A    between atoms: _1  and  _3
REMARK    2  A    between atoms: _3  and  _4
REMARK    3  A    between atoms: _7  and  _8
REMARK    4  A    between atoms: _13  and  _15
REMARK    5  A    between atoms: _15  and  _16
REMARK    6  A    between atoms: _19  and  _21
REMARK    7  A    between atoms: _21  and  _22
REMARK    8  A    between atoms: _21  and  _24
REMARK    9  A    between atoms: _24  and  _25
REMARK   10  A    between atoms: _25  and  _26
REMARK   11  A    between atoms: _29  and  _31
REMARK   12  A    between atoms: _31  and  _32
REMARK   13  A    between atoms: _31  and  _34
REMARK   14  A    between atoms: _34  and  _35
REMARK   15  A    between atoms: _38  and  _40
REMARK   16  A    between atoms: _40  and  _41
REMARK   17  A    between atoms: _40  and  _43
REMARK   18  A    between atoms: _43  and  _44
REMARK   19  A    between atoms: _46  and  _48
REMARK   20  A    between atoms: _48  and  _49
REMARK   21  A    between atoms: _48  and  _51
REMARK   22  A    between atoms: _51  and  _52
REMARK   23  A    between atoms: _54  and  _56
REMARK   24  A    between atoms: _56  and  _57
REMARK   25  A    between atoms: _56  and  _59
REMARK   26  A    between atoms: _59  and  _60
REMARK   27  A    between atoms: _60  and  _61
REMARK   28  A    between atoms: _64  and  _66
REMARK   29  A    between atoms: _66  and  _67
REMARK   30  A    between atoms: _66  and  _69
REMARK   31  A    between atoms: _69  and  _70
REMARK   32  A    between atoms: _72  and  _74
REMARK   33  A    between atoms: _74  and  _75
REMARK   34  A    between atoms: _74  and  _77
REMARK   35  A    between atoms: _77  and  _78
REMARK   36  A    between atoms: _81  and  _83
REMARK   37  A    between atoms: _83  and  _84
REMARK   38  A    between atoms: _87  and  _89
REMARK   39  A    between atoms: _89  and  _90
REMARK   40  A    between atoms: _89  and  _92
REMARK   41  A    between atoms: _92  and  _93
REMARK   42  A    between atoms: _93  and  _94
REMARK   43  A    between atoms: _94  and  _95
REMARK   44  A    between atoms: _95  and  _96
REMARK   45  A    between atoms: _100  and  _102
REMARK   46  A    between atoms: _102  and  _103
REMARK   47  A    between atoms: _102  and  _105
REMARK   48  A    between atoms: _105  and  _106
REMARK   49  A    between atoms: _109  and  _111
REMARK   50  A    between atoms: _111  and  _112
REMARK   51  A    between atoms: _111  and  _114
REMARK   52  A    between atoms: _117  and  _119
REMARK   53  A    between atoms: _119  and  _120
REMARK   54  A    between atoms: _119  and  _122
REMARK   55  A    between atoms: _122  and  _123
REMARK   56  A    between atoms: _126  and  _128
REMARK   57  A    between atoms: _128  and  _129
REMARK   58  A    between atoms: _128  and  _131
REMARK   59  A    between atoms: _131  and  _132
REMARK   60  A    between atoms: _132  and  _133
REMARK   61  A    between atoms: _135  and  _137
REMARK   62  A    between atoms: _137  and  _138
REMARK   63  A    between atoms: _137  and  _140
REMARK   64  A    between atoms: _140  and  _141
REMARK   65  A    between atoms: _147  and  _149
REMARK   66  A    between atoms: _149  and  _150
REMARK   67  A    between atoms: _153  and  _155
REMARK   68  A    between atoms: _155  and  _156
REMARK   69  A    between atoms: _155  and  _158
REMARK   70  A    between atoms: _158  and  _159
REMARK   71  A    between atoms: _164  and  _166
REMARK   72  A    between atoms: _166  and  _167
REMARK   73  A    between atoms: _166  and  _169
REMARK   74  A    between atoms: _169  and  _170
REMARK   75  A    between atoms: _173  and  _175
REMARK   76  A    between atoms: _175  and  _176
REMARK   77  A    between atoms: _175  and  _178
REMARK   78  A    between atoms: _178  and  _179
REMARK   79  A    between atoms: _179  and  _180
REMARK   80  A    between atoms: _185  and  _187
REMARK   81  A    between atoms: _187  and  _188
REMARK   82  A    between atoms: _187  and  _190
REMARK   83  A    between atoms: _190  and  _191
REMARK   84  A    between atoms: _195  and  _196
REMARK   85  A    between atoms: _201  and  _203
REMARK   86  A    between atoms: _203  and  _204
REMARK   87  A    between atoms: _203  and  _206
REMARK   88  A    between atoms: _206  and  _207
REMARK   89  A    between atoms: _212  and  _213
REMARK   90  A    between atoms: _215  and  _217
REMARK   91  A    between atoms: _217  and  _218
REMARK   92  A    between atoms: _217  and  _220
REMARK   93  A    between atoms: _220  and  _221
REMARK   94  A    between atoms: _224  and  _226
REMARK   95  A    between atoms: _226  and  _227
REMARK   96  A    between atoms: _226  and  _229
REMARK   97  A    between atoms: _229  and  _230
REMARK   98  A    between atoms: _232  and  _234
REMARK   99  A    between atoms: _234  and  _235
REMARK  100  A    between atoms: _234  and  _237
REMARK  101  A    between atoms: _237  and  _238
REMARK  102  A    between atoms: _243  and  _245
REMARK  103  A    between atoms: _245  and  _246
REMARK  104  A    between atoms: _245  and  _248
REMARK  105  A    between atoms: _248  and  _249
REMARK  106  A    between atoms: _252  and  _254
REMARK  107  A    between atoms: _254  and  _255
REMARK  108  A    between atoms: _254  and  _257
REMARK  109  A    between atoms: _257  and  _258
REMARK  110  A    between atoms: _269  and  _270
REMARK  111  A    between atoms: _275  and  _277
REMARK  112  A    between atoms: _277  and  _278
REMARK  113  A    between atoms: _277  and  _280
REMARK  114  A    between atoms: _280  and  _281
REMARK  115  A    between atoms: _284  and  _286
REMARK  116  A    between atoms: _286  and  _287
REMARK  117  A    between atoms: _286  and  _289
REMARK  118  A    between atoms: _289  and  _290
REMARK  119  A    between atoms: _295  and  _297
REMARK  120  A    between atoms: _297  and  _298
REMARK  121  A    between atoms: _300  and  _302
REMARK  122  A    between atoms: _302  and  _303
REMARK  123  A    between atoms: _302  and  _305
REMARK  124  A    between atoms: _305  and  _306
REMARK  125  A    between atoms: _316  and  _318
REMARK  126  A    between atoms: _318  and  _319
REMARK  127  A    between atoms: _318  and  _321
REMARK  128  A    between atoms: _321  and  _322
REMARK  129  A    between atoms: _327  and  _328
REMARK  130  A    between atoms: _330  and  _332
REMARK  131  A    between atoms: _332  and  _333
REMARK  132  A    between atoms: _332  and  _335
REMARK  133  A    between atoms: _335  and  _336
REMARK  134  A    between atoms: _339  and  _341
REMARK  135  A    between atoms: _341  and  _342
REMARK  136  A    between atoms: _341  and  _344
REMARK  137  A    between atoms: _344  and  _345
REMARK  138  A    between atoms: _350  and  _352
REMARK  139  A    between atoms: _352  and  _353
REMARK  140  A    between atoms: _352  and  _355
REMARK  141  A    between atoms: _355  and  _356
REMARK  142  A    between atoms: _361  and  _363
REMARK  143  A    between atoms: _363  and  _364
REMARK  144  A    between atoms: _363  and  _366
REMARK  145  A    between atoms: _366  and  _367
REMARK  146  A    between atoms: _367  and  _368
REMARK  147  A    between atoms: _371  and  _373
REMARK  148  A    between atoms: _373  and  _374
REMARK  149  A    between atoms: _376  and  _378
REMARK  150  A    between atoms: _378  and  _379
REMARK  151  A    between atoms: _378  and  _381
REMARK  152  A    between atoms: _381  and  _382
REMARK  153  A    between atoms: _384  and  _386
REMARK  154  A    between atoms: _386  and  _387
REMARK  155  A    between atoms: _386  and  _389
REMARK  156  A    between atoms: _389  and  _390
REMARK  157  A    between atoms: _395  and  _396
REMARK  158  A    between atoms: _398  and  _400
REMARK  159  A    between atoms: _400  and  _401
REMARK  160  A    between atoms: _400  and  _403
REMARK  161  A    between atoms: _403  and  _404
REMARK  162  A    between atoms: _409  and  _411
REMARK  163  A    between atoms: _411  and  _412
REMARK  164  A    between atoms: _414  and  _416
REMARK  165  A    between atoms: _416  and  _417
REMARK  166  A    between atoms: _416  and  _419
REMARK  167  A    between atoms: _419  and  _420
REMARK  168  A    between atoms: _425  and  _427
REMARK  169  A    between atoms: _427  and  _428
REMARK  170  A    between atoms: _427  and  _430
REMARK  171  A    between atoms: _430  and  _431
REMARK  172  A    between atoms: _441  and  _443
REMARK  173  A    between atoms: _443  and  _444
REMARK  174  A    between atoms: _443  and  _446
REMARK  175  A    between atoms: _446  and  _447
REMARK  176  A    between atoms: _452  and  _454
REMARK  177  A    between atoms: _454  and  _455
REMARK  178  A    between atoms: _454  and  _457
REMARK  179  A    between atoms: _457  and  _458
REMARK  180  A    between atoms: _458  and  _459
REMARK  181  A    between atoms: _459  and  _460
REMARK  182  A    between atoms: _460  and  _461
REMARK  183  A    between atoms: _465  and  _467
REMARK  184  A    between atoms: _467  and  _468
REMARK  185  A    between atoms: _467  and  _470
REMARK  186  A    between atoms: _470  and  _471
REMARK  187  A    between atoms: _477  and  _479
REMARK  188  A    between atoms: _479  and  _480
REMARK  189  A    between atoms: _482  and  _484
REMARK  190  A    between atoms: _484  and  _485
REMARK  191  A    between atoms: _484  and  _487
REMARK  192  A    between atoms: _487  and  _488
REMARK  193  A    between atoms: _490  and  _492
REMARK  194  A    between atoms: _492  and  _493
REMARK  195  A    between atoms: _492  and  _495
REMARK  196  A    between atoms: _495  and  _496
REMARK  197  A    between atoms: _496  and  _497
REMARK  198  A    between atoms: _497  and  _498
REMARK  199  A    between atoms: _498  and  _499
REMARK  200  A    between atoms: _503  and  _505
REMARK  201  A    between atoms: _505  and  _506
REMARK  202  A    between atoms: _505  and  _508
REMARK  203  A    between atoms: _508  and  _509
REMARK  204  A    between atoms: _514  and  _516
REMARK  205  A    between atoms: _516  and  _517
REMARK  206  A    between atoms: _516  and  _519
REMARK  207  A    between atoms: _519  and  _520
REMARK  208  A    between atoms: _520  and  _521
REMARK  209  A    between atoms: _521  and  _522
REMARK  210  A    between atoms: _531  and  _533
REMARK  211  A    between atoms: _533  and  _534
REMARK  212  A    between atoms: _533  and  _536
REMARK  213  A    between atoms: _536  and  _537
REMARK  214  A    between atoms: _537  and  _538
REMARK  215  A    between atoms: _543  and  _545
REMARK  216  A    between atoms: _545  and  _546
REMARK  217  A    between atoms: _545  and  _548
REMARK  218  A    between atoms: _548  and  _549
REMARK  219  A    between atoms: _549  and  _550
REMARK  220  A    between atoms: _555  and  _557
REMARK  221  A    between atoms: _557  and  _558
REMARK  222  A    between atoms: _557  and  _560
REMARK  223  A    between atoms: _560  and  _561
REMARK  224  A    between atoms: _564  and  _566
REMARK  225  A    between atoms: _566  and  _567
REMARK  226  A    between atoms: _566  and  _569
REMARK  227  A    between atoms: _569  and  _570
REMARK  228  A    between atoms: _570  and  _571
REMARK  229  A    between atoms: _573  and  _575
REMARK  230  A    between atoms: _575  and  _576
REMARK  231  A    between atoms: _575  and  _578
REMARK  232  A    between atoms: _578  and  _579
REMARK  233  A    between atoms: _581  and  _583
REMARK  234  A    between atoms: _583  and  _584
REMARK  235  A    between atoms: _586  and  _588
REMARK  236  A    between atoms: _588  and  _589
REMARK  237  A    between atoms: _588  and  _591
REMARK  238  A    between atoms: _591  and  _592
REMARK  239  A    between atoms: _597  and  _598
REMARK  240  A    between atoms: _600  and  _602
REMARK  241  A    between atoms: _602  and  _603
REMARK  242  A    between atoms: _602  and  _605
REMARK  243  A    between atoms: _605  and  _606
REMARK  244  A    between atoms: _616  and  _618
REMARK  245  A    between atoms: _618  and  _619
REMARK  246  A    between atoms: _618  and  _621
REMARK  247  A    between atoms: _621  and  _622
REMARK  248  A    between atoms: _625  and  _627
REMARK  249  A    between atoms: _627  and  _628
REMARK  250  A    between atoms: _631  and  _633
REMARK  251  A    between atoms: _633  and  _634
REMARK  252  A    between atoms: _637  and  _639
REMARK  253  A    between atoms: _639  and  _640
REMARK  254  A    between atoms: _639  and  _642
REMARK  255  A    between atoms: _642  and  _643
REMARK  256  A    between atoms: _647  and  _648
REMARK                            x       y       z     vdW  Elec       q    Type
REMARK                         _______ _______ _______ _____ _____    ______ ____
ROOT
ATOM      1  C   ASN A   3      37.264  62.040  17.655  0.00  0.00    +0.241 C 
ATOM      2  N   TRP A   4      36.664  62.269  18.817  0.00  0.00    -0.297 N 
ATOM      3  H   TRP A   4      35.643  62.466  18.829  0.00  0.00    +0.150 HD
ATOM      4  O   ASN A   3      38.461  61.725  17.557  0.00  0.00    -0.273 OA
ENDROOT
BRANCH   2   5
ATOM      5  CA  TRP A   4      37.401  62.252  20.080  0.00  0.00    +0.153 C 
BRANCH   5   6
ATOM      6  C   TRP A   4      38.002  60.883  20.414  0.00  0.00    +0.241 C 
ATOM      7  O   TRP A   4      38.953  60.801  21.202  0.00  0.00    -0.273 OA
ATOM      8  N   ASN A   5      37.453  59.810  19.846  0.00  0.00    -0.298 N 
ATOM      9  H   ASN A   5      36.639  59.940  19.212  0.00  0.00    +0.150 HD
BRANCH   8  10
ATOM     10  CA  ASN A   5      37.955  58.449  20.082  0.00  0.00    +0.146 C 
BRANCH  10  11
ATOM     11  C   ASN A   5      38.771  57.850  18.931  0.00  0.00    +0.227 C 
ATOM     12  O   ASN A   5      38.985  56.633  18.891  0.00  0.00    -0.286 OA
ENDBRANCH  10  11
BRANCH  10  13
ATOM     13  CB  ASN A   5      36.790  57.508  20.400  0.00  0.00    +0.112 C 
BRANCH  13  14
ATOM     14  CG  ASN A   5      36.395  57.538  21.873  0.00  0.00    +0.222 C 
ATOM     15  OD1 ASN A   5      37.228  57.763  22.758  0.00  0.00    -0.275 OA
ATOM     16  ND2 ASN A   5      35.123  57.279  22.144  0.00  0.00    -0.329 N 
ATOM     17 HD21 ASN A   5      34.795  57.260  23.131  0.00  0.00    +0.145 HD
ATOM     18 HD22 ASN A   5      34.453  57.095  21.370  0.00  0.00    +0.145 HD
ENDBRANCH  13  14
ENDBRANCH  10  13
ENDBRANCH   8  10
ENDBRANCH   5   6
BRANCH   5  19
ATOM     19  CB  TRP A   4      36.494  62.720  21.227  0.00  0.00    +0.057 C 
BRANCH  19  20
ATOM     20  CG  TRP A   4      35.250  61.927  21.304  0.00  0.00    -0.002 A 
ATOM     21  CD1 TRP A   4      35.061  60.792  22.024  0.00  0.00    +0.068 A 
ATOM     22  NE1 TRP A   4      33.800  60.302  21.806  0.00  0.00    -0.352 N 
ATOM     23  HE1 TRP A   4      33.403  59.442  22.235  0.00  0.00    +0.166 HD
ATOM     24  CE2 TRP A   4      33.147  61.129  20.931  0.00  0.00    +0.056 A 
ATOM     25  CZ2 TRP A   4      31.861  61.046  20.415  0.00  0.00    +0.017 A 
ATOM     26  CH2 TRP A   4      31.460  62.021  19.550  0.00  0.00    +0.001 A 
ATOM     27  CZ3 TRP A   4      32.310  63.073  19.200  0.00  0.00    +0.000 A 
ATOM     28  CE3 TRP A   4      33.591  63.158  19.711  0.00  0.00    +0.001 A 
ATOM     29  CD2 TRP A   4      34.025  62.169  20.601  0.00  0.00    +0.013 A 
ENDBRANCH  19  20
ENDBRANCH   5  19
ENDBRANCH   2   5
BRANCH   1  30
ATOM     30  CA  ASN A   3      36.380  62.152  16.417  0.00  0.00    +0.158 C 
BRANCH  30  33
ATOM     31  C   GLY A   2      34.645  60.529  17.070  0.00  0.00    +0.243 C 
ATOM     32  O   GLY A   2      35.437  59.667  17.447  0.00  0.00    -0.273 OA
ATOM     33  N   ASN A   3      35.000  61.747  16.672  0.00  0.00    -0.297 N 
ATOM     34  H   ASN A   3      34.250  62.454  16.534  0.00  0.00    +0.150 HD
BRANCH  31  35
ATOM     35  CA  GLY A   2      33.163  60.297  17.014  0.00  0.00    +0.176 C 
BRANCH  35  37
ATOM     36  C   ASN A   1      31.609  58.461  16.996  0.00  0.00    +0.239 C 
ATOM     37  N   GLY A   2      32.651  59.056  17.569  0.00  0.00    -0.296 N 
ATOM     38  H   GLY A   2      33.097  58.635  18.409  0.00  0.00    +0.150 HD
ATOM     39  O   ASN A   1      31.138  58.865  15.926  0.00  0.00    -0.274 OA
BRANCH  36  40
ATOM     40  CA  ASN A   1      30.977  57.269  17.704  0.00  0.00    +0.154 C 
BRANCH  40  41
ATOM     41  N   ASN A   1      30.330  56.435  16.720  0.00  0.00    -0.238 NA
ATOM     42  H   ASN A   1      30.562  56.561  15.714  0.00  0.00    +0.142 HD
ENDBRANCH  40  41
BRANCH  40  43
ATOM     43  CB  ASN A   1      32.001  56.434  18.491  0.00  0.00    +0.111 C 
BRANCH  43  44
ATOM     44  CG  ASN A   1      32.335  57.032  19.832  0.00  0.00    +0.221 C 
ATOM     45  ND2 ASN A   1      31.499  56.773  20.828  0.00  0.00    -0.329 N 
ATOM     46 HD21 ASN A   1      31.657  57.199  21.763  0.00  0.00    +0.145 HD
ATOM     47 HD22 ASN A   1      30.686  56.144  20.674  0.00  0.00    +0.145 HD
ATOM     48  OD1 ASN A   1      33.317  57.773  19.962  0.00  0.00    -0.275 OA
ENDBRANCH  43  44
ENDBRANCH  40  43
ENDBRANCH  36  40
ENDBRANCH  35  37
ENDBRANCH  31  35
ENDBRANCH  30  33
BRANCH  30  49
ATOM     49  CB  ASN A   3      36.317  63.584  15.876  0.00  0.00    +0.114 C 
BRANCH  49  50
ATOM     50  CG  ASN A   3      37.624  64.108  15.299  0.00  0.00    +0.222 C 
ATOM     51  ND2 ASN A   3      38.701  63.322  15.284  0.00  0.00    -0.329 N 
ATOM     52 HD21 ASN A   3      38.651  62.363  15.684  0.00  0.00    +0.145 HD
ATOM     53 HD22 ASN A   3      39.591  63.668  14.872  0.00  0.00    +0.145 HD
ATOM     54  OD1 ASN A   3      37.626  65.236  14.846  0.00  0.00    -0.275 OA
ENDBRANCH  49  50
ENDBRANCH  30  49
ENDBRANCH   1  30
TORSDOF 18
REMARK  Name = ../refined-set-2016/4uac/4uac_pocket.pdb
REMARK  256 active torsions:
REMARK  status: ('A' for Active; 'I' for Inactive)
REMARK    1  A    between atoms: _1  and  _3
REMARK    2  A    between atoms: _3  and  _4
REMARK    3  A    between atoms: _7  and  _8
REMARK    4  A    between atoms: _13  and  _15
REMARK    5  A    between atoms: _15  and  _16
REMARK    6  A    between atoms: _19  and  _21
REMARK    7  A    between atoms: _21  and  _22
REMARK    8  A    between atoms: _21  and  _24
REMARK    9  A    between atoms: _24  and  _25
REMARK   10  A    between atoms: _25  and  _26
REMARK   11  A    between atoms: _29  and  _31
REMARK   12  A    between atoms: _31  and  _32
REMARK   13  A    between atoms: _31  and  _34
REMARK   14  A    between atoms: _34  and  _35
REMARK   15  A    between atoms: _38  and  _40
REMARK   16  A    between atoms: _40  and  _41
REMARK   17  A    between atoms: _40  and  _43
REMARK   18  A    between atoms: _43  and  _44
REMARK   19  A    between atoms: _46  and  _48
REMARK   20  A    between atoms: _48  and  _49
REMARK   21  A    between atoms: _48  and  _51
REMARK   22  A    between atoms: _51  and  _52
REMARK   23  A    between atoms: _54  and  _56
REMARK   24  A    between atoms: _56  and  _57
REMARK   25  A    between atoms: _56  and  _59
REMARK   26  A    between atoms: _59  and  _60
REMARK   27  A    between atoms: _60  and  _61
REMARK   28  A    between atoms: _64  and  _66
REMARK   29  A    between atoms: _66  and  _67
REMARK   30  A    between atoms: _66  and  _69
REMARK   31  A    between atoms: _69  and  _70
REMARK   32  A    between atoms: _72  and  _74
REMARK   33  A    between atoms: _74  and  _75
REMARK   34  A    between atoms: _74  and  _77
REMARK   35  A    between atoms: _77  and  _78
REMARK   36  A    between atoms: _81  and  _83
REMARK   37  A    between atoms: _83  and  _84
REMARK   38  A    between atoms: _87  and  _89
REMARK   39  A    between atoms: _89  and  _90
REMARK   40  A    between atoms: _89  and  _92
REMARK   41  A    between atoms: _92  and  _93
REMARK   42  A    between atoms: _93  and  _94
REMARK   43  A    between atoms: _94  and  _95
REMARK   44  A    between atoms: _95  and  _96
REMARK   45  A    between atoms: _100  and  _102
REMARK   46  A    between atoms: _102  and  _103
REMARK   47  A    between atoms: _102  and  _105
REMARK   48  A    between atoms: _105  and  _106
REMARK   49  A    between atoms: _109  and  _111
REMARK   50  A    between atoms: _111  and  _112
REMARK   51  A    between atoms: _111  and  _114
REMARK   52  A    between atoms: _117  and  _119
REMARK   53  A    between atoms: _119  and  _120
REMARK   54  A    between atoms: _119  and  _122
REMARK   55  A    between atoms: _122  and  _123
REMARK   56  A    between atoms: _126  and  _128
REMARK   57  A    between atoms: _128  and  _129
REMARK   58  A    between atoms: _128  and  _131
REMARK   59  A    between atoms: _131  and  _132
REMARK   60  A    between atoms: _132  and  _133
REMARK   61  A    between atoms: _135  and  _137
REMARK   62  A    between atoms: _137  and  _138
REMARK   63  A    between atoms: _137  and  _140
REMARK   64  A    between atoms: _140  and  _141
REMARK   65  A    between atoms: _147  and  _149
REMARK   66  A    between atoms: _149  and  _150
REMARK   67  A    between atoms: _153  and  _155
REMARK   68  A    between atoms: _155  and  _156
REMARK   69  A    between atoms: _155  and  _158
REMARK   70  A    between atoms: _158  and  _159
REMARK   71  A    between atoms: _164  and  _166
REMARK   72  A    between atoms: _166  and  _167
REMARK   73  A    between atoms: _166  and  _169
REMARK   74  A    between atoms: _169  and  _170
REMARK   75  A    between atoms: _173  and  _175
REMARK   76  A    between atoms: _175  and  _176
REMARK   77  A    between atoms: _175  and  _178
REMARK   78  A    between atoms: _178  and  _179
REMARK   79  A    between atoms: _179  and  _180
REMARK   80  A    between atoms: _185  and  _187
REMARK   81  A    between atoms: _187  and  _188
REMARK   82  A    between atoms: _187  and  _190
REMARK   83  A    between atoms: _190  and  _191
REMARK   84  A    between atoms: _195  and  _196
REMARK   85  A    between atoms: _201  and  _203
REMARK   86  A    between atoms: _203  and  _204
REMARK   87  A    between atoms: _203  and  _206
REMARK   88  A    between atoms: _206  and  _207
REMARK   89  A    between atoms: _212  and  _213
REMARK   90  A    between atoms: _215  and  _217
REMARK   91  A    between atoms: _217  and  _218
REMARK   92  A    between atoms: _217  and  _220
REMARK   93  A    between atoms: _220  and  _221
REMARK   94  A    between atoms: _224  and  _226
REMARK   95  A    between atoms: _226  and  _227
REMARK   96  A    between atoms: _226  and  _229
REMARK   97  A    between atoms: _229  and  _230
REMARK   98  A    between atoms: _232  and  _234
REMARK   99  A    between atoms: _234  and  _235
REMARK  100  A    between atoms: _234  and  _237
REMARK  101  A    between atoms: _237  and  _238
REMARK  102  A    between atoms: _243  and  _245
REMARK  103  A    between atoms: _245  and  _246
REMARK  104  A    between atoms: _245  and  _248
REMARK  105  A    between atoms: _248  and  _249
REMARK  106  A    between atoms: _252  and  _254
REMARK  107  A    between atoms: _254  and  _255
REMARK  108  A    between atoms: _254  and  _257
REMARK  109  A    between atoms: _257  and  _258
REMARK  110  A    between atoms: _269  and  _270
REMARK  111  A    between atoms: _275  and  _277
REMARK  112  A    between atoms: _277  and  _278
REMARK  113  A    between atoms: _277  and  _280
REMARK  114  A    between atoms: _280  and  _281
REMARK  115  A    between atoms: _284  and  _286
REMARK  116  A    between atoms: _286  and  _287
REMARK  117  A    between atoms: _286  and  _289
REMARK  118  A    between atoms: _289  and  _290
REMARK  119  A    between atoms: _295  and  _297
REMARK  120  A    between atoms: _297  and  _298
REMARK  121  A    between atoms: _300  and  _302
REMARK  122  A    between atoms: _302  and  _303
REMARK  123  A    between atoms: _302  and  _305
REMARK  124  A    between atoms: _305  and  _306
REMARK  125  A    between atoms: _316  and  _318
REMARK  126  A    between atoms: _318  and  _319
REMARK  127  A    between atoms: _318  and  _321
REMARK  128  A    between atoms: _321  and  _322
REMARK  129  A    between atoms: _327  and  _328
REMARK  130  A    between atoms: _330  and  _332
REMARK  131  A    between atoms: _332  and  _333
REMARK  132  A    between atoms: _332  and  _335
REMARK  133  A    between atoms: _335  and  _336
REMARK  134  A    between atoms: _339  and  _341
REMARK  135  A    between atoms: _341  and  _342
REMARK  136  A    between atoms: _341  and  _344
REMARK  137  A    between atoms: _344  and  _345
REMARK  138  A    between atoms: _350  and  _352
REMARK  139  A    between atoms: _352  and  _353
REMARK  140  A    between atoms: _352  and  _355
REMARK  141  A    between atoms: _355  and  _356
REMARK  142  A    between atoms: _361  and  _363
REMARK  143  A    between atoms: _363  and  _364
REMARK  144  A    between atoms: _363  and  _366
REMARK  145  A    between atoms: _366  and  _367
REMARK  146  A    between atoms: _367  and  _368
REMARK  147  A    between atoms: _371  and  _373
REMARK  148  A    between atoms: _373  and  _374
REMARK  149  A    between atoms: _376  and  _378
REMARK  150  A    between atoms: _378  and  _379
REMARK  151  A    between atoms: _378  and  _381
REMARK  152  A    between atoms: _381  and  _382
REMARK  153  A    between atoms: _384  and  _386
REMARK  154  A    between atoms: _386  and  _387
REMARK  155  A    between atoms: _386  and  _389
REMARK  156  A    between atoms: _389  and  _390
REMARK  157  A    between atoms: _395  and  _396
REMARK  158  A    between atoms: _398  and  _400
REMARK  159  A    between atoms: _400  and  _401
REMARK  160  A    between atoms: _400  and  _403
REMARK  161  A    between atoms: _403  and  _404
REMARK  162  A    between atoms: _409  and  _411
REMARK  163  A    between atoms: _411  and  _412
REMARK  164  A    between atoms: _414  and  _416
REMARK  165  A    between atoms: _416  and  _417
REMARK  166  A    between atoms: _416  and  _419
REMARK  167  A    between atoms: _419  and  _420
REMARK  168  A    between atoms: _425  and  _427
REMARK  169  A    between atoms: _427  and  _428
REMARK  170  A    between atoms: _427  and  _430
REMARK  171  A    between atoms: _430  and  _431
REMARK  172  A    between atoms: _441  and  _443
REMARK  173  A    between atoms: _443  and  _444
REMARK  174  A    between atoms: _443  and  _446
REMARK  175  A    between atoms: _446  and  _447
REMARK  176  A    between atoms: _452  and  _454
REMARK  177  A    between atoms: _454  and  _455
REMARK  178  A    between atoms: _454  and  _457
REMARK  179  A    between atoms: _457  and  _458
REMARK  180  A    between atoms: _458  and  _459
REMARK  181  A    between atoms: _459  and  _460
REMARK  182  A    between atoms: _460  and  _461
REMARK  183  A    between atoms: _465  and  _467
REMARK  184  A    between atoms: _467  and  _468
REMARK  185  A    between atoms: _467  and  _470
REMARK  186  A    between atoms: _470  and  _471
REMARK  187  A    between atoms: _477  and  _479
REMARK  188  A    between atoms: _479  and  _480
REMARK  189  A    between atoms: _482  and  _484
REMARK  190  A    between atoms: _484  and  _485
REMARK  191  A    between atoms: _484  and  _487
REMARK  192  A    between atoms: _487  and  _488
REMARK  193  A    between atoms: _490  and  _492
REMARK  194  A    between atoms: _492  and  _493
REMARK  195  A    between atoms: _492  and  _495
REMARK  196  A    between atoms: _495  and  _496
REMARK  197  A    between atoms: _496  and  _497
REMARK  198  A    between atoms: _497  and  _498
REMARK  199  A    between atoms: _498  and  _499
REMARK  200  A    between atoms: _503  and  _505
REMARK  201  A    between atoms: _505  and  _506
REMARK  202  A    between atoms: _505  and  _508
REMARK  203  A    between atoms: _508  and  _509
REMARK  204  A    between atoms: _514  and  _516
REMARK  205  A    between atoms: _516  and  _517
REMARK  206  A    between atoms: _516  and  _519
REMARK  207  A    between atoms: _519  and  _520
REMARK  208  A    between atoms: _520  and  _521
REMARK  209  A    between atoms: _521  and  _522
REMARK  210  A    between atoms: _531  and  _533
REMARK  211  A    between atoms: _533  and  _534
REMARK  212  A    between atoms: _533  and  _536
REMARK  213  A    between atoms: _536  and  _537
REMARK  214  A    between atoms: _537  and  _538
REMARK  215  A    between atoms: _543  and  _545
REMARK  216  A    between atoms: _545  and  _546
REMARK  217  A    between atoms: _545  and  _548
REMARK  218  A    between atoms: _548  and  _549
REMARK  219  A    between atoms: _549  and  _550
REMARK  220  A    between atoms: _555  and  _557
REMARK  221  A    between atoms: _557  and  _558
REMARK  222  A    between atoms: _557  and  _560
REMARK  223  A    between atoms: _560  and  _561
REMARK  224  A    between atoms: _564  and  _566
REMARK  225  A    between atoms: _566  and  _567
REMARK  226  A    between atoms: _566  and  _569
REMARK  227  A    between atoms: _569  and  _570
REMARK  228  A    between atoms: _570  and  _571
REMARK  229  A    between atoms: _573  and  _575
REMARK  230  A    between atoms: _575  and  _576
REMARK  231  A    between atoms: _575  and  _578
REMARK  232  A    between atoms: _578  and  _579
REMARK  233  A    between atoms: _581  and  _583
REMARK  234  A    between atoms: _583  and  _584
REMARK  235  A    between atoms: _586  and  _588
REMARK  236  A    between atoms: _588  and  _589
REMARK  237  A    between atoms: _588  and  _591
REMARK  238  A    between atoms: _591  and  _592
REMARK  239  A    between atoms: _597  and  _598
REMARK  240  A    between atoms: _600  and  _602
REMARK  241  A    between atoms: _602  and  _603
REMARK  242  A    between atoms: _602  and  _605
REMARK  243  A    between atoms: _605  and  _606
REMARK  244  A    between atoms: _616  and  _618
REMARK  245  A    between atoms: _618  and  _619
REMARK  246  A    between atoms: _618  and  _621
REMARK  247  A    between atoms: _621  and  _622
REMARK  248  A    between atoms: _625  and  _627
REMARK  249  A    between atoms: _627  and  _628
REMARK  250  A    between atoms: _631  and  _633
REMARK  251  A    between atoms: _633  and  _634
REMARK  252  A    between atoms: _637  and  _639
REMARK  253  A    between atoms: _639  and  _640
REMARK  254  A    between atoms: _639  and  _642
REMARK  255  A    between atoms: _642  and  _643
REMARK  256  A    between atoms: _647  and  _648
REMARK                            x       y       z     vdW  Elec       q    Type
REMARK                         _______ _______ _______ _____ _____    ______ ____
ROOT
ATOM      1  CG  LYS A   1      41.150  55.796  22.989  0.00  0.00    -0.000 C 
ENDROOT
BRANCH   1   2
ATOM      2  CB  LYS A   1      40.558  55.013  21.851  0.00  0.00    +0.025 C 
BRANCH   2   3
ATOM      3  CA  LYS A   1      41.564  54.745  20.743  0.00  0.00    +0.133 C 
BRANCH   3   4
ATOM      4  N   LYS A   1      41.897  55.971  20.028  0.00  0.00    -0.239 NA
ATOM      5  H   LYS A   1      41.325  56.827  20.173  0.00  0.00    +0.142 HD
ENDBRANCH   3   4
BRANCH   3   6
ATOM      6  C   LYS A   1      41.025  53.678  19.807  0.00  0.00    +0.224 C 
ATOM      7  O   LYS A   1      41.253  52.495  20.039  0.00  0.00    -0.287 OA
ENDBRANCH   3   6
ENDBRANCH   2   3
ENDBRANCH   1   2
BRANCH   1   8
ATOM      8  CD  LYS A   1      40.140  56.114  24.041  0.00  0.00    -0.024 C 
BRANCH   8   9
ATOM      9  CE  LYS A   1      40.802  56.797  25.211  0.00  0.00    -0.086 C 
BRANCH   9  10
ATOM     10  NZ  LYS A   1      39.958  56.671  26.415  0.00  0.00    +0.380 N 
ATOM     11  HZ1 LYS A   1      40.424  57.145  27.215  0.00  0.00    -0.089 HD
ATOM     12  HZ2 LYS A   1      39.823  55.664  26.638  0.00  0.00    -0.089 HD
ATOM     13  HZ3 LYS A   1      39.034  57.115  26.237  0.00  0.00    -0.089 HD
ENDBRANCH   9  10
ENDBRANCH   8   9
ENDBRANCH   1   8
TORSDOF 7
REMARK  Name = ../refined-set-2016/4uac/4uac_pocket.pdb
REMARK  256 active torsions:
REMARK  status: ('A' for Active; 'I' for Inactive)
REMARK    1  A    between atoms: _1  and  _3
REMARK    2  A    between atoms: _3  and  _4
REMARK    3  A    between atoms: _7  and  _8
REMARK    4  A    between atoms: _13  and  _15
REMARK    5  A    between atoms: _15  and  _16
REMARK    6  A    between atoms: _19  and  _21
REMARK    7  A    between atoms: _21  and  _22
REMARK    8  A    between atoms: _21  and  _24
REMARK    9  A    between atoms: _24  and  _25
REMARK   10  A    between atoms: _25  and  _26
REMARK   11  A    between atoms: _29  and  _31
REMARK   12  A    between atoms: _31  and  _32
REMARK   13  A    between atoms: _31  and  _34
REMARK   14  A    between atoms: _34  and  _35
REMARK   15  A    between atoms: _38  and  _40
REMARK   16  A    between atoms: _40  and  _41
REMARK   17  A    between atoms: _40  and  _43
REMARK   18  A    between atoms: _43  and  _44
REMARK   19  A    between atoms: _46  and  _48
REMARK   20  A    between atoms: _48  and  _49
REMARK   21  A    between atoms: _48  and  _51
REMARK   22  A    between atoms: _51  and  _52
REMARK   23  A    between atoms: _54  and  _56
REMARK   24  A    between atoms: _56  and  _57
REMARK   25  A    between atoms: _56  and  _59
REMARK   26  A    between atoms: _59  and  _60
REMARK   27  A    between atoms: _60  and  _61
REMARK   28  A    between atoms: _64  and  _66
REMARK   29  A    between atoms: _66  and  _67
REMARK   30  A    between atoms: _66  and  _69
REMARK   31  A    between atoms: _69  and  _70
REMARK   32  A    between atoms: _72  and  _74
REMARK   33  A    between atoms: _74  and  _75
REMARK   34  A    between atoms: _74  and  _77
REMARK   35  A    between atoms: _77  and  _78
REMARK   36  A    between atoms: _81  and  _83
REMARK   37  A    between atoms: _83  and  _84
REMARK   38  A    between atoms: _87  and  _89
REMARK   39  A    between atoms: _89  and  _90
REMARK   40  A    between atoms: _89  and  _92
REMARK   41  A    between atoms: _92  and  _93
REMARK   42  A    between atoms: _93  and  _94
REMARK   43  A    between atoms: _94  and  _95
REMARK   44  A    between atoms: _95  and  _96
REMARK   45  A    between atoms: _100  and  _102
REMARK   46  A    between atoms: _102  and  _103
REMARK   47  A    between atoms: _102  and  _105
REMARK   48  A    between atoms: _105  and  _106
REMARK   49  A    between atoms: _109  and  _111
REMARK   50  A    between atoms: _111  and  _112
REMARK   51  A    between atoms: _111  and  _114
REMARK   52  A    between atoms: _117  and  _119
REMARK   53  A    between atoms: _119  and  _120
REMARK   54  A    between atoms: _119  and  _122
REMARK   55  A    between atoms: _122  and  _123
REMARK   56  A    between atoms: _126  and  _128
REMARK   57  A    between atoms: _128  and  _129
REMARK   58  A    between atoms: _128  and  _131
REMARK   59  A    between atoms: _131  and  _132
REMARK   60  A    between atoms: _132  and  _133
REMARK   61  A    between atoms: _135  and  _137
REMARK   62  A    between atoms: _137  and  _138
REMARK   63  A    between atoms: _137  and  _140
REMARK   64  A    between atoms: _140  and  _141
REMARK   65  A    between atoms: _147  and  _149
REMARK   66  A    between atoms: _149  and  _150
REMARK   67  A    between atoms: _153  and  _155
REMARK   68  A    between atoms: _155  and  _156
REMARK   69  A    between atoms: _155  and  _158
REMARK   70  A    between atoms: _158  and  _159
REMARK   71  A    between atoms: _164  and  _166
REMARK   72  A    between atoms: _166  and  _167
REMARK   73  A    between atoms: _166  and  _169
REMARK   74  A    between atoms: _169  and  _170
REMARK   75  A    between atoms: _173  and  _175
REMARK   76  A    between atoms: _175  and  _176
REMARK   77  A    between atoms: _175  and  _178
REMARK   78  A    between atoms: _178  and  _179
REMARK   79  A    between atoms: _179  and  _180
REMARK   80  A    between atoms: _185  and  _187
REMARK   81  A    between atoms: _187  and  _188
REMARK   82  A    between atoms: _187  and  _190
REMARK   83  A    between atoms: _190  and  _191
REMARK   84  A    between atoms: _195  and  _196
REMARK   85  A    between atoms: _201  and  _203
REMARK   86  A    between atoms: _203  and  _204
REMARK   87  A    between atoms: _203  and  _206
REMARK   88  A    between atoms: _206  and  _207
REMARK   89  A    between atoms: _212  and  _213
REMARK   90  A    between atoms: _215  and  _217
REMARK   91  A    between atoms: _217  and  _218
REMARK   92  A    between atoms: _217  and  _220
REMARK   93  A    between atoms: _220  and  _221
REMARK   94  A    between atoms: _224  and  _226
REMARK   95  A    between atoms: _226  and  _227
REMARK   96  A    between atoms: _226  and  _229
REMARK   97  A    between atoms: _229  and  _230
REMARK   98  A    between atoms: _232  and  _234
REMARK   99  A    between atoms: _234  and  _235
REMARK  100  A    between atoms: _234  and  _237
REMARK  101  A    between atoms: _237  and  _238
REMARK  102  A    between atoms: _243  and  _245
REMARK  103  A    between atoms: _245  and  _246
REMARK  104  A    between atoms: _245  and  _248
REMARK  105  A    between atoms: _248  and  _249
REMARK  106  A    between atoms: _252  and  _254
REMARK  107  A    between atoms: _254  and  _255
REMARK  108  A    between atoms: _254  and  _257
REMARK  109  A    between atoms: _257  and  _258
REMARK  110  A    between atoms: _269  and  _270
REMARK  111  A    between atoms: _275  and  _277
REMARK  112  A    between atoms: _277  and  _278
REMARK  113  A    between atoms: _277  and  _280
REMARK  114  A    between atoms: _280  and  _281
REMARK  115  A    between atoms: _284  and  _286
REMARK  116  A    between atoms: _286  and  _287
REMARK  117  A    between atoms: _286  and  _289
REMARK  118  A    between atoms: _289  and  _290
REMARK  119  A    between atoms: _295  and  _297
REMARK  120  A    between atoms: _297  and  _298
REMARK  121  A    between atoms: _300  and  _302
REMARK  122  A    between atoms: _302  and  _303
REMARK  123  A    between atoms: _302  and  _305
REMARK  124  A    between atoms: _305  and  _306
REMARK  125  A    between atoms: _316  and  _318
REMARK  126  A    between atoms: _318  and  _319
REMARK  127  A    between atoms: _318  and  _321
REMARK  128  A    between atoms: _321  and  _322
REMARK  129  A    between atoms: _327  and  _328
REMARK  130  A    between atoms: _330  and  _332
REMARK  131  A    between atoms: _332  and  _333
REMARK  132  A    between atoms: _332  and  _335
REMARK  133  A    between atoms: _335  and  _336
REMARK  134  A    between atoms: _339  and  _341
REMARK  135  A    between atoms: _341  and  _342
REMARK  136  A    between atoms: _341  and  _344
REMARK  137  A    between atoms: _344  and  _345
REMARK  138  A    between atoms: _350  and  _352
REMARK  139  A    between atoms: _352  and  _353
REMARK  140  A    between atoms: _352  and  _355
REMARK  141  A    between atoms: _355  and  _356
REMARK  142  A    between atoms: _361  and  _363
REMARK  143  A    between atoms: _363  and  _364
REMARK  144  A    between atoms: _363  and  _366
REMARK  145  A    between atoms: _366  and  _367
REMARK  146  A    between atoms: _367  and  _368
REMARK  147  A    between atoms: _371  and  _373
REMARK  148  A    between atoms: _373  and  _374
REMARK  149  A    between atoms: _376  and  _378
REMARK  150  A    between atoms: _378  and  _379
REMARK  151  A    between atoms: _378  and  _381
REMARK  152  A    between atoms: _381  and  _382
REMARK  153  A    between atoms: _384  and  _386
REMARK  154  A    between atoms: _386  and  _387
REMARK  155  A    between atoms: _386  and  _389
REMARK  156  A    between atoms: _389  and  _390
REMARK  157  A    between atoms: _395  and  _396
REMARK  158  A    between atoms: _398  and  _400
REMARK  159  A    between atoms: _400  and  _401
REMARK  160  A    between atoms: _400  and  _403
REMARK  161  A    between atoms: _403  and  _404
REMARK  162  A    between atoms: _409  and  _411
REMARK  163  A    between atoms: _411  and  _412
REMARK  164  A    between atoms: _414  and  _416
REMARK  165  A    between atoms: _416  and  _417
REMARK  166  A    between atoms: _416  and  _419
REMARK  167  A    between atoms: _419  and  _420
REMARK  168  A    between atoms: _425  and  _427
REMARK  169  A    between atoms: _427  and  _428
REMARK  170  A    between atoms: _427  and  _430
REMARK  171  A    between atoms: _430  and  _431
REMARK  172  A    between atoms: _441  and  _443
REMARK  173  A    between atoms: _443  and  _444
REMARK  174  A    between atoms: _443  and  _446
REMARK  175  A    between atoms: _446  and  _447
REMARK  176  A    between atoms: _452  and  _454
REMARK  177  A    between atoms: _454  and  _455
REMARK  178  A    between atoms: _454  and  _457
REMARK  179  A    between atoms: _457  and  _458
REMARK  180  A    between atoms: _458  and  _459
REMARK  181  A    between atoms: _459  and  _460
REMARK  182  A    between atoms: _460  and  _461
REMARK  183  A    between atoms: _465  and  _467
REMARK  184  A    between atoms: _467  and  _468
REMARK  185  A    between atoms: _467  and  _470
REMARK  186  A    between atoms: _470  and  _471
REMARK  187  A    between atoms: _477  and  _479
REMARK  188  A    between atoms: _479  and  _480
REMARK  189  A    between atoms: _482  and  _484
REMARK  190  A    between atoms: _484  and  _485
REMARK  191  A    between atoms: _484  and  _487
REMARK  192  A    between atoms: _487  and  _488
REMARK  193  A    between atoms: _490  and  _492
REMARK  194  A    between atoms: _492  and  _493
REMARK  195  A    between atoms: _492  and  _495
REMARK  196  A    between atoms: _495  and  _496
REMARK  197  A    between atoms: _496  and  _497
REMARK  198  A    between atoms: _497  and  _498
REMARK  199  A    between atoms: _498  and  _499
REMARK  200  A    between atoms: _503  and  _505
REMARK  201  A    between atoms: _505  and  _506
REMARK  202  A    between atoms: _505  and  _508
REMARK  203  A    between atoms: _508  and  _509
REMARK  204  A    between atoms: _514  and  _516
REMARK  205  A    between atoms: _516  and  _517
REMARK  206  A    between atoms: _516  and  _519
REMARK  207  A    between atoms: _519  and  _520
REMARK  208  A    between atoms: _520  and  _521
REMARK  209  A    between atoms: _521  and  _522
REMARK  210  A    between atoms: _531  and  _533
REMARK  211  A    between atoms: _533  and  _534
REMARK  212  A    between atoms: _533  and  _536
REMARK  213  A    between atoms: _536  and  _537
REMARK  214  A    between atoms: _537  and  _538
REMARK  215  A    between atoms: _543  and  _545
REMARK  216  A    between atoms: _545  and  _546
REMARK  217  A    between atoms: _545  and  _548
REMARK  218  A    between atoms: _548  and  _549
REMARK  219  A    between atoms: _549  and  _550
REMARK  220  A    between atoms: _555  and  _557
REMARK  221  A    between atoms: _557  and  _558
REMARK  222  A    between atoms: _557  and  _560
REMARK  223  A    between atoms: _560  and  _561
REMARK  224  A    between atoms: _564  and  _566
REMARK  225  A    between atoms: _566  and  _567
REMARK  226  A    between atoms: _566  and  _569
REMARK  227  A    between atoms: _569  and  _570
REMARK  228  A    between atoms: _570  and  _571
REMARK  229  A    between atoms: _573  and  _575
REMARK  230  A    between atoms: _575  and  _576
REMARK  231  A    between atoms: _575  and  _578
REMARK  232  A    between atoms: _578  and  _579
REMARK  233  A    between atoms: _581  and  _583
REMARK  234  A    between atoms: _583  and  _584
REMARK  235  A    between atoms: _586  and  _588
REMARK  236  A    between atoms: _588  and  _589
REMARK  237  A    between atoms: _588  and  _591
REMARK  238  A    between atoms: _591  and  _592
REMARK  239  A    between atoms: _597  and  _598
REMARK  240  A    between atoms: _600  and  _602
REMARK  241  A    between atoms: _602  and  _603
REMARK  242  A    between atoms: _602  and  _605
REMARK  243  A    between atoms: _605  and  _606
REMARK  244  A    between atoms: _616  and  _618
REMARK  245  A    between atoms: _618  and  _619
REMARK  246  A    between atoms: _618  and  _621
REMARK  247  A    between atoms: _621  and  _622
REMARK  248  A    between atoms: _625  and  _627
REMARK  249  A    between atoms: _627  and  _628
REMARK  250  A    between atoms: _631  and  _633
REMARK  251  A    between atoms: _633  and  _634
REMARK  252  A    between atoms: _637  and  _639
REMARK  253  A    between atoms: _639  and  _640
REMARK  254  A    between atoms: _639  and  _642
REMARK  255  A    between atoms: _642  and  _643
REMARK  256  A    between atoms: _647  and  _648
REMARK                            x       y       z     vdW  Elec       q    Type
REMARK                         _______ _______ _______ _____ _____    ______ ____
ROOT
ATOM      1  CB  PHE A   1      22.621  66.011  16.100  0.00  0.00    +0.051 C 
ENDROOT
BRANCH   1   2
ATOM      2  CG  PHE A   1      21.274  65.672  16.635  0.00  0.00    -0.020 A 
ATOM      3  CD2 PHE A   1      21.123  64.685  17.595  0.00  0.00    -0.004 A 
ATOM      4  CE2 PHE A   1      19.862  64.394  18.116  0.00  0.00    -0.000 A 
ATOM      5  CZ  PHE A   1      18.755  65.061  17.646  0.00  0.00    -0.000 A 
ATOM      6  CE1 PHE A   1      18.901  66.053  16.679  0.00  0.00    -0.000 A 
ATOM      7  CD1 PHE A   1      20.150  66.344  16.185  0.00  0.00    -0.004 A 
ENDBRANCH   1   2
BRANCH   1   8
ATOM      8  CA  PHE A   1      22.808  65.695  14.616  0.00  0.00    +0.137 C 
BRANCH   8   9
ATOM      9  N   PHE A   1      22.753  64.260  14.365  0.00  0.00    -0.239 NA
ATOM     10  H   PHE A   1      22.728  63.596  15.165  0.00  0.00    +0.142 HD
ENDBRANCH   8   9
BRANCH   8  11
ATOM     11  C   PHE A   1      24.148  66.258  14.181  0.00  0.00    +0.224 C 
ATOM     12  O   PHE A   1      25.199  65.610  14.367  0.00  0.00    -0.287 OA
ENDBRANCH   8  11
ENDBRANCH   1   8
TORSDOF 4
REMARK  Name = ../refined-set-2016/4uac/4uac_pocket.pdb
REMARK  256 active torsions:
REMARK  status: ('A' for Active; 'I' for Inactive)
REMARK    1  A    between atoms: _1  and  _3
REMARK    2  A    between atoms: _3  and  _4
REMARK    3  A    between atoms: _7  and  _8
REMARK    4  A    between atoms: _13  and  _15
REMARK    5  A    between atoms: _15  and  _16
REMARK    6  A    between atoms: _19  and  _21
REMARK    7  A    between atoms: _21  and  _22
REMARK    8  A    between atoms: _21  and  _24
REMARK    9  A    between atoms: _24  and  _25
REMARK   10  A    between atoms: _25  and  _26
REMARK   11  A    between atoms: _29  and  _31
REMARK   12  A    between atoms: _31  and  _32
REMARK   13  A    between atoms: _31  and  _34
REMARK   14  A    between atoms: _34  and  _35
REMARK   15  A    between atoms: _38  and  _40
REMARK   16  A    between atoms: _40  and  _41
REMARK   17  A    between atoms: _40  and  _43
REMARK   18  A    between atoms: _43  and  _44
REMARK   19  A    between atoms: _46  and  _48
REMARK   20  A    between atoms: _48  and  _49
REMARK   21  A    between atoms: _48  and  _51
REMARK   22  A    between atoms: _51  and  _52
REMARK   23  A    between atoms: _54  and  _56
REMARK   24  A    between atoms: _56  and  _57
REMARK   25  A    between atoms: _56  and  _59
REMARK   26  A    between atoms: _59  and  _60
REMARK   27  A    between atoms: _60  and  _61
REMARK   28  A    between atoms: _64  and  _66
REMARK   29  A    between atoms: _66  and  _67
REMARK   30  A    between atoms: _66  and  _69
REMARK   31  A    between atoms: _69  and  _70
REMARK   32  A    between atoms: _72  and  _74
REMARK   33  A    between atoms: _74  and  _75
REMARK   34  A    between atoms: _74  and  _77
REMARK   35  A    between atoms: _77  and  _78
REMARK   36  A    between atoms: _81  and  _83
REMARK   37  A    between atoms: _83  and  _84
REMARK   38  A    between atoms: _87  and  _89
REMARK   39  A    between atoms: _89  and  _90
REMARK   40  A    between atoms: _89  and  _92
REMARK   41  A    between atoms: _92  and  _93
REMARK   42  A    between atoms: _93  and  _94
REMARK   43  A    between atoms: _94  and  _95
REMARK   44  A    between atoms: _95  and  _96
REMARK   45  A    between atoms: _100  and  _102
REMARK   46  A    between atoms: _102  and  _103
REMARK   47  A    between atoms: _102  and  _105
REMARK   48  A    between atoms: _105  and  _106
REMARK   49  A    between atoms: _109  and  _111
REMARK   50  A    between atoms: _111  and  _112
REMARK   51  A    between atoms: _111  and  _114
REMARK   52  A    between atoms: _117  and  _119
REMARK   53  A    between atoms: _119  and  _120
REMARK   54  A    between atoms: _119  and  _122
REMARK   55  A    between atoms: _122  and  _123
REMARK   56  A    between atoms: _126  and  _128
REMARK   57  A    between atoms: _128  and  _129
REMARK   58  A    between atoms: _128  and  _131
REMARK   59  A    between atoms: _131  and  _132
REMARK   60  A    between atoms: _132  and  _133
REMARK   61  A    between atoms: _135  and  _137
REMARK   62  A    between atoms: _137  and  _138
REMARK   63  A    between atoms: _137  and  _140
REMARK   64  A    between atoms: _140  and  _141
REMARK   65  A    between atoms: _147  and  _149
REMARK   66  A    between atoms: _149  and  _150
REMARK   67  A    between atoms: _153  and  _155
REMARK   68  A    between atoms: _155  and  _156
REMARK   69  A    between atoms: _155  and  _158
REMARK   70  A    between atoms: _158  and  _159
REMARK   71  A    between atoms: _164  and  _166
REMARK   72  A    between atoms: _166  and  _167
REMARK   73  A    between atoms: _166  and  _169
REMARK   74  A    between atoms: _169  and  _170
REMARK   75  A    between atoms: _173  and  _175
REMARK   76  A    between atoms: _175  and  _176
REMARK   77  A    between atoms: _175  and  _178
REMARK   78  A    between atoms: _178  and  _179
REMARK   79  A    between atoms: _179  and  _180
REMARK   80  A    between atoms: _185  and  _187
REMARK   81  A    between atoms: _187  and  _188
REMARK   82  A    between atoms: _187  and  _190
REMARK   83  A    between atoms: _190  and  _191
REMARK   84  A    between atoms: _195  and  _196
REMARK   85  A    between atoms: _201  and  _203
REMARK   86  A    between atoms: _203  and  _204
REMARK   87  A    between atoms: _203  and  _206
REMARK   88  A    between atoms: _206  and  _207
REMARK   89  A    between atoms: _212  and  _213
REMARK   90  A    between atoms: _215  and  _217
REMARK   91  A    between atoms: _217  and  _218
REMARK   92  A    between atoms: _217  and  _220
REMARK   93  A    between atoms: _220  and  _221
REMARK   94  A    between atoms: _224  and  _226
REMARK   95  A    between atoms: _226  and  _227
REMARK   96  A    between atoms: _226  and  _229
REMARK   97  A    between atoms: _229  and  _230
REMARK   98  A    between atoms: _232  and  _234
REMARK   99  A    between atoms: _234  and  _235
REMARK  100  A    between atoms: _234  and  _237
REMARK  101  A    between atoms: _237  and  _238
REMARK  102  A    between atoms: _243  and  _245
REMARK  103  A    between atoms: _245  and  _246
REMARK  104  A    between atoms: _245  and  _248
REMARK  105  A    between atoms: _248  and  _249
REMARK  106  A    between atoms: _252  and  _254
REMARK  107  A    between atoms: _254  and  _255
REMARK  108  A    between atoms: _254  and  _257
REMARK  109  A    between atoms: _257  and  _258
REMARK  110  A    between atoms: _269  and  _270
REMARK  111  A    between atoms: _275  and  _277
REMARK  112  A    between atoms: _277  and  _278
REMARK  113  A    between atoms: _277  and  _280
REMARK  114  A    between atoms: _280  and  _281
REMARK  115  A    between atoms: _284  and  _286
REMARK  116  A    between atoms: _286  and  _287
REMARK  117  A    between atoms: _286  and  _289
REMARK  118  A    between atoms: _289  and  _290
REMARK  119  A    between atoms: _295  and  _297
REMARK  120  A    between atoms: _297  and  _298
REMARK  121  A    between atoms: _300  and  _302
REMARK  122  A    between atoms: _302  and  _303
REMARK  123  A    between atoms: _302  and  _305
REMARK  124  A    between atoms: _305  and  _306
REMARK  125  A    between atoms: _316  and  _318
REMARK  126  A    between atoms: _318  and  _319
REMARK  127  A    between atoms: _318  and  _321
REMARK  128  A    between atoms: _321  and  _322
REMARK  129  A    between atoms: _327  and  _328
REMARK  130  A    between atoms: _330  and  _332
REMARK  131  A    between atoms: _332  and  _333
REMARK  132  A    between atoms: _332  and  _335
REMARK  133  A    between atoms: _335  and  _336
REMARK  134  A    between atoms: _339  and  _341
REMARK  135  A    between atoms: _341  and  _342
REMARK  136  A    between atoms: _341  and  _344
REMARK  137  A    between atoms: _344  and  _345
REMARK  138  A    between atoms: _350  and  _352
REMARK  139  A    between atoms: _352  and  _353
REMARK  140  A    between atoms: _352  and  _355
REMARK  141  A    between atoms: _355  and  _356
REMARK  142  A    between atoms: _361  and  _363
REMARK  143  A    between atoms: _363  and  _364
REMARK  144  A    between atoms: _363  and  _366
REMARK  145  A    between atoms: _366  and  _367
REMARK  146  A    between atoms: _367  and  _368
REMARK  147  A    between atoms: _371  and  _373
REMARK  148  A    between atoms: _373  and  _374
REMARK  149  A    between atoms: _376  and  _378
REMARK  150  A    between atoms: _378  and  _379
REMARK  151  A    between atoms: _378  and  _381
REMARK  152  A    between atoms: _381  and  _382
REMARK  153  A    between atoms: _384  and  _386
REMARK  154  A    between atoms: _386  and  _387
REMARK  155  A    between atoms: _386  and  _389
REMARK  156  A    between atoms: _389  and  _390
REMARK  157  A    between atoms: _395  and  _396
REMARK  158  A    between atoms: _398  and  _400
REMARK  159  A    between atoms: _400  and  _401
REMARK  160  A    between atoms: _400  and  _403
REMARK  161  A    between atoms: _403  and  _404
REMARK  162  A    between atoms: _409  and  _411
REMARK  163  A    between atoms: _411  and  _412
REMARK  164  A    between atoms: _414  and  _416
REMARK  165  A    between atoms: _416  and  _417
REMARK  166  A    between atoms: _416  and  _419
REMARK  167  A    between atoms: _419  and  _420
REMARK  168  A    between atoms: _425  and  _427
REMARK  169  A    between atoms: _427  and  _428
REMARK  170  A    between atoms: _427  and  _430
REMARK  171  A    between atoms: _430  and  _431
REMARK  172  A    between atoms: _441  and  _443
REMARK  173  A    between atoms: _443  and  _444
REMARK  174  A    between atoms: _443  and  _446
REMARK  175  A    between atoms: _446  and  _447
REMARK  176  A    between atoms: _452  and  _454
REMARK  177  A    between atoms: _454  and  _455
REMARK  178  A    between atoms: _454  and  _457
REMARK  179  A    between atoms: _457  and  _458
REMARK  180  A    between atoms: _458  and  _459
REMARK  181  A    between atoms: _459  and  _460
REMARK  182  A    between atoms: _460  and  _461
REMARK  183  A    between atoms: _465  and  _467
REMARK  184  A    between atoms: _467  and  _468
REMARK  185  A    between atoms: _467  and  _470
REMARK  186  A    between atoms: _470  and  _471
REMARK  187  A    between atoms: _477  and  _479
REMARK  188  A    between atoms: _479  and  _480
REMARK  189  A    between atoms: _482  and  _484
REMARK  190  A    between atoms: _484  and  _485
REMARK  191  A    between atoms: _484  and  _487
REMARK  192  A    between atoms: _487  and  _488
REMARK  193  A    between atoms: _490  and  _492
REMARK  194  A    between atoms: _492  and  _493
REMARK  195  A    between atoms: _492  and  _495
REMARK  196  A    between atoms: _495  and  _496
REMARK  197  A    between atoms: _496  and  _497
REMARK  198  A    between atoms: _497  and  _498
REMARK  199  A    between atoms: _498  and  _499
REMARK  200  A    between atoms: _503  and  _505
REMARK  201  A    between atoms: _505  and  _506
REMARK  202  A    between atoms: _505  and  _508
REMARK  203  A    between atoms: _508  and  _509
REMARK  204  A    between atoms: _514  and  _516
REMARK  205  A    between atoms: _516  and  _517
REMARK  206  A    between atoms: _516  and  _519
REMARK  207  A    between atoms: _519  and  _520
REMARK  208  A    between atoms: _520  and  _521
REMARK  209  A    between atoms: _521  and  _522
REMARK  210  A    between atoms: _531  and  _533
REMARK  211  A    between atoms: _533  and  _534
REMARK  212  A    between atoms: _533  and  _536
REMARK  213  A    between atoms: _536  and  _537
REMARK  214  A    between atoms: _537  and  _538
REMARK  215  A    between atoms: _543  and  _545
REMARK  216  A    between atoms: _545  and  _546
REMARK  217  A    between atoms: _545  and  _548
REMARK  218  A    between atoms: _548  and  _549
REMARK  219  A    between atoms: _549  and  _550
REMARK  220  A    between atoms: _555  and  _557
REMARK  221  A    between atoms: _557  and  _558
REMARK  222  A    between atoms: _557  and  _560
REMARK  223  A    between atoms: _560  and  _561
REMARK  224  A    between atoms: _564  and  _566
REMARK  225  A    between atoms: _566  and  _567
REMARK  226  A    between atoms: _566  and  _569
REMARK  227  A    between atoms: _569  and  _570
REMARK  228  A    between atoms: _570  and  _571
REMARK  229  A    between atoms: _573  and  _575
REMARK  230  A    between atoms: _575  and  _576
REMARK  231  A    between atoms: _575  and  _578
REMARK  232  A    between atoms: _578  and  _579
REMARK  233  A    between atoms: _581  and  _583
REMARK  234  A    between atoms: _583  and  _584
REMARK  235  A    between atoms: _586  and  _588
REMARK  236  A    between atoms: _588  and  _589
REMARK  237  A    between atoms: _588  and  _591
REMARK  238  A    between atoms: _591  and  _592
REMARK  239  A    between atoms: _597  and  _598
REMARK  240  A    between atoms: _600  and  _602
REMARK  241  A    between atoms: _602  and  _603
REMARK  242  A    between atoms: _602  and  _605
REMARK  243  A    between atoms: _605  and  _606
REMARK  244  A    between atoms: _616  and  _618
REMARK  245  A    between atoms: _618  and  _619
REMARK  246  A    between atoms: _618  and  _621
REMARK  247  A    between atoms: _621  and  _622
REMARK  248  A    between atoms: _625  and  _627
REMARK  249  A    between atoms: _627  and  _628
REMARK  250  A    between atoms: _631  and  _633
REMARK  251  A    between atoms: _633  and  _634
REMARK  252  A    between atoms: _637  and  _639
REMARK  253  A    between atoms: _639  and  _640
REMARK  254  A    between atoms: _639  and  _642
REMARK  255  A    between atoms: _642  and  _643
REMARK  256  A    between atoms: _647  and  _648
REMARK                            x       y       z     vdW  Elec       q    Type
REMARK                         _______ _______ _______ _____ _____    ______ ____
ROOT
ATOM      1  C   SER A   2      30.065  72.155  18.400  0.00  0.00    +0.243 C 
ATOM      2  O   SER A   2      29.190  72.040  19.252  0.00  0.00    -0.273 OA
ATOM      3  N   LYS A   3      31.361  72.045  18.648  0.00  0.00    -0.298 N 
ATOM      4  H   LYS A   3      32.006  71.761  17.883  0.00  0.00    +0.150 HD
ENDROOT
BRANCH   1   5
ATOM      5  CA  SER A   2      29.692  72.336  16.948  0.00  0.00    +0.178 C 
BRANCH   5   7
ATOM      6  C   GLY A   1      27.837  71.362  15.704  0.00  0.00    +0.240 C 
ATOM      7  N   SER A   2      28.288  71.991  16.785  0.00  0.00    -0.295 N 
ATOM      8  H   SER A   2      27.616  72.244  17.538  0.00  0.00    +0.150 HD
ATOM      9  O   GLY A   1      28.572  71.084  14.740  0.00  0.00    -0.274 OA
BRANCH   6  10
ATOM     10  CA  GLY A   1      26.364  71.004  15.685  0.00  0.00    +0.169 C 
BRANCH  10  11
ATOM     11  N   GLY A   1      26.231  69.770  14.937  0.00  0.00    -0.236 NA
ATOM     12  H   GLY A   1      26.907  69.002  15.126  0.00  0.00    +0.142 HD
ENDBRANCH  10  11
ENDBRANCH   6  10
ENDBRANCH   5   7
BRANCH   5  13
ATOM     13  CB  SER A   2      29.981  73.772  16.525  0.00  0.00    +0.166 C 
BRANCH  13  14
ATOM     14  OG  SER A   2      29.439  74.702  17.434  0.00  0.00    -0.380 OA
ATOM     15  H   SER A   2      29.646  75.620  17.128  0.00  0.00    +0.211 HD
ENDBRANCH  13  14
ENDBRANCH   5  13
ENDBRANCH   1   5
BRANCH   3  16
ATOM     16  CA  LYS A   3      31.897  72.315  19.975  0.00  0.00    +0.137 C 
BRANCH  16  17
ATOM     17  C   LYS A   3      32.603  73.659  19.910  0.00  0.00    +0.227 C 
ATOM     18  O   LYS A   3      33.257  73.978  18.917  0.00  0.00    -0.286 OA
ENDBRANCH  16  17
BRANCH  16  19
ATOM     19  CB  LYS A   3      32.816  71.202  20.432  0.00  0.00    +0.028 C 
BRANCH  19  20
ATOM     20  CG  LYS A   3      32.074  69.858  20.484  0.00  0.00    -0.000 C 
BRANCH  20  21
ATOM     21  CD  LYS A   3      32.859  68.742  21.217  0.00  0.00    -0.024 C 
BRANCH  21  22
ATOM     22  CE  LYS A   3      34.086  68.295  20.431  0.00  0.00    -0.086 C 
BRANCH  22  23
ATOM     23  NZ  LYS A   3      34.888  67.268  21.148  0.00  0.00    +0.380 N 
ATOM     24  HZ1 LYS A   3      35.216  67.657  22.055  0.00  0.00    -0.089 HD
ATOM     25  HZ2 LYS A   3      34.299  66.429  21.322  0.00  0.00    -0.089 HD
ATOM     26  HZ3 LYS A   3      35.708  67.002  20.567  0.00  0.00    -0.089 HD
ENDBRANCH  22  23
ENDBRANCH  21  22
ENDBRANCH  20  21
ENDBRANCH  19  20
ENDBRANCH  16  19
ENDBRANCH   3  16
TORSDOF 13
REMARK  Name = ../refined-set-2016/4uac/4uac_pocket.pdb
REMARK  256 active torsions:
REMARK  status: ('A' for Active; 'I' for Inactive)
REMARK    1  A    between atoms: _1  and  _3
REMARK    2  A    between atoms: _3  and  _4
REMARK    3  A    between atoms: _7  and  _8
REMARK    4  A    between atoms: _13  and  _15
REMARK    5  A    between atoms: _15  and  _16
REMARK    6  A    between atoms: _19  and  _21
REMARK    7  A    between atoms: _21  and  _22
REMARK    8  A    between atoms: _21  and  _24
REMARK    9  A    between atoms: _24  and  _25
REMARK   10  A    between atoms: _25  and  _26
REMARK   11  A    between atoms: _29  and  _31
REMARK   12  A    between atoms: _31  and  _32
REMARK   13  A    between atoms: _31  and  _34
REMARK   14  A    between atoms: _34  and  _35
REMARK   15  A    between atoms: _38  and  _40
REMARK   16  A    between atoms: _40  and  _41
REMARK   17  A    between atoms: _40  and  _43
REMARK   18  A    between atoms: _43  and  _44
REMARK   19  A    between atoms: _46  and  _48
REMARK   20  A    between atoms: _48  and  _49
REMARK   21  A    between atoms: _48  and  _51
REMARK   22  A    between atoms: _51  and  _52
REMARK   23  A    between atoms: _54  and  _56
REMARK   24  A    between atoms: _56  and  _57
REMARK   25  A    between atoms: _56  and  _59
REMARK   26  A    between atoms: _59  and  _60
REMARK   27  A    between atoms: _60  and  _61
REMARK   28  A    between atoms: _64  and  _66
REMARK   29  A    between atoms: _66  and  _67
REMARK   30  A    between atoms: _66  and  _69
REMARK   31  A    between atoms: _69  and  _70
REMARK   32  A    between atoms: _72  and  _74
REMARK   33  A    between atoms: _74  and  _75
REMARK   34  A    between atoms: _74  and  _77
REMARK   35  A    between atoms: _77  and  _78
REMARK   36  A    between atoms: _81  and  _83
REMARK   37  A    between atoms: _83  and  _84
REMARK   38  A    between atoms: _87  and  _89
REMARK   39  A    between atoms: _89  and  _90
REMARK   40  A    between atoms: _89  and  _92
REMARK   41  A    between atoms: _92  and  _93
REMARK   42  A    between atoms: _93  and  _94
REMARK   43  A    between atoms: _94  and  _95
REMARK   44  A    between atoms: _95  and  _96
REMARK   45  A    between atoms: _100  and  _102
REMARK   46  A    between atoms: _102  and  _103
REMARK   47  A    between atoms: _102  and  _105
REMARK   48  A    between atoms: _105  and  _106
REMARK   49  A    between atoms: _109  and  _111
REMARK   50  A    between atoms: _111  and  _112
REMARK   51  A    between atoms: _111  and  _114
REMARK   52  A    between atoms: _117  and  _119
REMARK   53  A    between atoms: _119  and  _120
REMARK   54  A    between atoms: _119  and  _122
REMARK   55  A    between atoms: _122  and  _123
REMARK   56  A    between atoms: _126  and  _128
REMARK   57  A    between atoms: _128  and  _129
REMARK   58  A    between atoms: _128  and  _131
REMARK   59  A    between atoms: _131  and  _132
REMARK   60  A    between atoms: _132  and  _133
REMARK   61  A    between atoms: _135  and  _137
REMARK   62  A    between atoms: _137  and  _138
REMARK   63  A    between atoms: _137  and  _140
REMARK   64  A    between atoms: _140  and  _141
REMARK   65  A    between atoms: _147  and  _149
REMARK   66  A    between atoms: _149  and  _150
REMARK   67  A    between atoms: _153  and  _155
REMARK   68  A    between atoms: _155  and  _156
REMARK   69  A    between atoms: _155  and  _158
REMARK   70  A    between atoms: _158  and  _159
REMARK   71  A    between atoms: _164  and  _166
REMARK   72  A    between atoms: _166  and  _167
REMARK   73  A    between atoms: _166  and  _169
REMARK   74  A    between atoms: _169  and  _170
REMARK   75  A    between atoms: _173  and  _175
REMARK   76  A    between atoms: _175  and  _176
REMARK   77  A    between atoms: _175  and  _178
REMARK   78  A    between atoms: _178  and  _179
REMARK   79  A    between atoms: _179  and  _180
REMARK   80  A    between atoms: _185  and  _187
REMARK   81  A    between atoms: _187  and  _188
REMARK   82  A    between atoms: _187  and  _190
REMARK   83  A    between atoms: _190  and  _191
REMARK   84  A    between atoms: _195  and  _196
REMARK   85  A    between atoms: _201  and  _203
REMARK   86  A    between atoms: _203  and  _204
REMARK   87  A    between atoms: _203  and  _206
REMARK   88  A    between atoms: _206  and  _207
REMARK   89  A    between atoms: _212  and  _213
REMARK   90  A    between atoms: _215  and  _217
REMARK   91  A    between atoms: _217  and  _218
REMARK   92  A    between atoms: _217  and  _220
REMARK   93  A    between atoms: _220  and  _221
REMARK   94  A    between atoms: _224  and  _226
REMARK   95  A    between atoms: _226  and  _227
REMARK   96  A    between atoms: _226  and  _229
REMARK   97  A    between atoms: _229  and  _230
REMARK   98  A    between atoms: _232  and  _234
REMARK   99  A    between atoms: _234  and  _235
REMARK  100  A    between atoms: _234  and  _237
REMARK  101  A    between atoms: _237  and  _238
REMARK  102  A    between atoms: _243  and  _245
REMARK  103  A    between atoms: _245  and  _246
REMARK  104  A    between atoms: _245  and  _248
REMARK  105  A    between atoms: _248  and  _249
REMARK  106  A    between atoms: _252  and  _254
REMARK  107  A    between atoms: _254  and  _255
REMARK  108  A    between atoms: _254  and  _257
REMARK  109  A    between atoms: _257  and  _258
REMARK  110  A    between atoms: _269  and  _270
REMARK  111  A    between atoms: _275  and  _277
REMARK  112  A    between atoms: _277  and  _278
REMARK  113  A    between atoms: _277  and  _280
REMARK  114  A    between atoms: _280  and  _281
REMARK  115  A    between atoms: _284  and  _286
REMARK  116  A    between atoms: _286  and  _287
REMARK  117  A    between atoms: _286  and  _289
REMARK  118  A    between atoms: _289  and  _290
REMARK  119  A    between atoms: _295  and  _297
REMARK  120  A    between atoms: _297  and  _298
REMARK  121  A    between atoms: _300  and  _302
REMARK  122  A    between atoms: _302  and  _303
REMARK  123  A    between atoms: _302  and  _305
REMARK  124  A    between atoms: _305  and  _306
REMARK  125  A    between atoms: _316  and  _318
REMARK  126  A    between atoms: _318  and  _319
REMARK  127  A    between atoms: _318  and  _321
REMARK  128  A    between atoms: _321  and  _322
REMARK  129  A    between atoms: _327  and  _328
REMARK  130  A    between atoms: _330  and  _332
REMARK  131  A    between atoms: _332  and  _333
REMARK  132  A    between atoms: _332  and  _335
REMARK  133  A    between atoms: _335  and  _336
REMARK  134  A    between atoms: _339  and  _341
REMARK  135  A    between atoms: _341  and  _342
REMARK  136  A    between atoms: _341  and  _344
REMARK  137  A    between atoms: _344  and  _345
REMARK  138  A    between atoms: _350  and  _352
REMARK  139  A    between atoms: _352  and  _353
REMARK  140  A    between atoms: _352  and  _355
REMARK  141  A    between atoms: _355  and  _356
REMARK  142  A    between atoms: _361  and  _363
REMARK  143  A    between atoms: _363  and  _364
REMARK  144  A    between atoms: _363  and  _366
REMARK  145  A    between atoms: _366  and  _367
REMARK  146  A    between atoms: _367  and  _368
REMARK  147  A    between atoms: _371  and  _373
REMARK  148  A    between atoms: _373  and  _374
REMARK  149  A    between atoms: _376  and  _378
REMARK  150  A    between atoms: _378  and  _379
REMARK  151  A    between atoms: _378  and  _381
REMARK  152  A    between atoms: _381  and  _382
REMARK  153  A    between atoms: _384  and  _386
REMARK  154  A    between atoms: _386  and  _387
REMARK  155  A    between atoms: _386  and  _389
REMARK  156  A    between atoms: _389  and  _390
REMARK  157  A    between atoms: _395  and  _396
REMARK  158  A    between atoms: _398  and  _400
REMARK  159  A    between atoms: _400  and  _401
REMARK  160  A    between atoms: _400  and  _403
REMARK  161  A    between atoms: _403  and  _404
REMARK  162  A    between atoms: _409  and  _411
REMARK  163  A    between atoms: _411  and  _412
REMARK  164  A    between atoms: _414  and  _416
REMARK  165  A    between atoms: _416  and  _417
REMARK  166  A    between atoms: _416  and  _419
REMARK  167  A    between atoms: _419  and  _420
REMARK  168  A    between atoms: _425  and  _427
REMARK  169  A    between atoms: _427  and  _428
REMARK  170  A    between atoms: _427  and  _430
REMARK  171  A    between atoms: _430  and  _431
REMARK  172  A    between atoms: _441  and  _443
REMARK  173  A    between atoms: _443  and  _444
REMARK  174  A    between atoms: _443  and  _446
REMARK  175  A    between atoms: _446  and  _447
REMARK  176  A    between atoms: _452  and  _454
REMARK  177  A    between atoms: _454  and  _455
REMARK  178  A    between atoms: _454  and  _457
REMARK  179  A    between atoms: _457  and  _458
REMARK  180  A    between atoms: _458  and  _459
REMARK  181  A    between atoms: _459  and  _460
REMARK  182  A    between atoms: _460  and  _461
REMARK  183  A    between atoms: _465  and  _467
REMARK  184  A    between atoms: _467  and  _468
REMARK  185  A    between atoms: _467  and  _470
REMARK  186  A    between atoms: _470  and  _471
REMARK  187  A    between atoms: _477  and  _479
REMARK  188  A    between atoms: _479  and  _480
REMARK  189  A    between atoms: _482  and  _484
REMARK  190  A    between atoms: _484  and  _485
REMARK  191  A    between atoms: _484  and  _487
REMARK  192  A    between atoms: _487  and  _488
REMARK  193  A    between atoms: _490  and  _492
REMARK  194  A    between atoms: _492  and  _493
REMARK  195  A    between atoms: _492  and  _495
REMARK  196  A    between atoms: _495  and  _496
REMARK  197  A    between atoms: _496  and  _497
REMARK  198  A    between atoms: _497  and  _498
REMARK  199  A    between atoms: _498  and  _499
REMARK  200  A    between atoms: _503  and  _505
REMARK  201  A    between atoms: _505  and  _506
REMARK  202  A    between atoms: _505  and  _508
REMARK  203  A    between atoms: _508  and  _509
REMARK  204  A    between atoms: _514  and  _516
REMARK  205  A    between atoms: _516  and  _517
REMARK  206  A    between atoms: _516  and  _519
REMARK  207  A    between atoms: _519  and  _520
REMARK  208  A    between atoms: _520  and  _521
REMARK  209  A    between atoms: _521  and  _522
REMARK  210  A    between atoms: _531  and  _533
REMARK  211  A    between atoms: _533  and  _534
REMARK  212  A    between atoms: _533  and  _536
REMARK  213  A    between atoms: _536  and  _537
REMARK  214  A    between atoms: _537  and  _538
REMARK  215  A    between atoms: _543  and  _545
REMARK  216  A    between atoms: _545  and  _546
REMARK  217  A    between atoms: _545  and  _548
REMARK  218  A    between atoms: _548  and  _549
REMARK  219  A    between atoms: _549  and  _550
REMARK  220  A    between atoms: _555  and  _557
REMARK  221  A    between atoms: _557  and  _558
REMARK  222  A    between atoms: _557  and  _560
REMARK  223  A    between atoms: _560  and  _561
REMARK  224  A    between atoms: _564  and  _566
REMARK  225  A    between atoms: _566  and  _567
REMARK  226  A    between atoms: _566  and  _569
REMARK  227  A    between atoms: _569  and  _570
REMARK  228  A    between atoms: _570  and  _571
REMARK  229  A    between atoms: _573  and  _575
REMARK  230  A    between atoms: _575  and  _576
REMARK  231  A    between atoms: _575  and  _578
REMARK  232  A    between atoms: _578  and  _579
REMARK  233  A    between atoms: _581  and  _583
REMARK  234  A    between atoms: _583  and  _584
REMARK  235  A    between atoms: _586  and  _588
REMARK  236  A    between atoms: _588  and  _589
REMARK  237  A    between atoms: _588  and  _591
REMARK  238  A    between atoms: _591  and  _592
REMARK  239  A    between atoms: _597  and  _598
REMARK  240  A    between atoms: _600  and  _602
REMARK  241  A    between atoms: _602  and  _603
REMARK  242  A    between atoms: _602  and  _605
REMARK  243  A    between atoms: _605  and  _606
REMARK  244  A    between atoms: _616  and  _618
REMARK  245  A    between atoms: _618  and  _619
REMARK  246  A    between atoms: _618  and  _621
REMARK  247  A    between atoms: _621  and  _622
REMARK  248  A    between atoms: _625  and  _627
REMARK  249  A    between atoms: _627  and  _628
REMARK  250  A    between atoms: _631  and  _633
REMARK  251  A    between atoms: _633  and  _634
REMARK  252  A    between atoms: _637  and  _639
REMARK  253  A    between atoms: _639  and  _640
REMARK  254  A    between atoms: _639  and  _642
REMARK  255  A    between atoms: _642  and  _643
REMARK  256  A    between atoms: _647  and  _648
REMARK                            x       y       z     vdW  Elec       q    Type
REMARK                         _______ _______ _______ _____ _____    ______ ____
ROOT
ATOM      1  CB  HIS A   1      42.860  70.905  17.633  0.00  0.00    +0.072 C 
ENDROOT
BRANCH   1   2
ATOM      2  CG  HIS A   1      42.132  70.491  18.879  0.00  0.00    +0.082 A 
ATOM      3  CD2 HIS A   1      42.514  69.724  19.925  0.00  0.00    +0.115 A 
ATOM      4  NE2 HIS A   1      41.465  69.680  20.809  0.00  0.00    -0.221 NA
ATOM      5  CE1 HIS A   1      40.464  70.388  20.314  0.00  0.00    +0.199 A 
ATOM      6  ND1 HIS A   1      40.838  70.893  19.147  0.00  0.00    -0.227 NA
ENDBRANCH   1   2
BRANCH   1   7
ATOM      7  CA  HIS A   1      44.283  70.337  17.510  0.00  0.00    +0.139 C 
BRANCH   7   8
ATOM      8  N   HIS A   1      45.193  71.363  17.012  0.00  0.00    -0.239 NA
ATOM      9  H   HIS A   1      44.815  72.287  16.722  0.00  0.00    +0.142 HD
ENDBRANCH   7   8
BRANCH   7  10
ATOM     10  C   HIS A   1      44.283  69.136  16.568  0.00  0.00    +0.224 C 
ATOM     11  O   HIS A   1      44.154  67.976  16.982  0.00  0.00    -0.287 OA
ENDBRANCH   7  10
ENDBRANCH   1   7
TORSDOF 4
REMARK  Name = ../refined-set-2016/4uac/4uac_pocket.pdb
REMARK  256 active torsions:
REMARK  status: ('A' for Active; 'I' for Inactive)
REMARK    1  A    between atoms: _1  and  _3
REMARK    2  A    between atoms: _3  and  _4
REMARK    3  A    between atoms: _7  and  _8
REMARK    4  A    between atoms: _13  and  _15
REMARK    5  A    between atoms: _15  and  _16
REMARK    6  A    between atoms: _19  and  _21
REMARK    7  A    between atoms: _21  and  _22
REMARK    8  A    between atoms: _21  and  _24
REMARK    9  A    between atoms: _24  and  _25
REMARK   10  A    between atoms: _25  and  _26
REMARK   11  A    between atoms: _29  and  _31
REMARK   12  A    between atoms: _31  and  _32
REMARK   13  A    between atoms: _31  and  _34
REMARK   14  A    between atoms: _34  and  _35
REMARK   15  A    between atoms: _38  and  _40
REMARK   16  A    between atoms: _40  and  _41
REMARK   17  A    between atoms: _40  and  _43
REMARK   18  A    between atoms: _43  and  _44
REMARK   19  A    between atoms: _46  and  _48
REMARK   20  A    between atoms: _48  and  _49
REMARK   21  A    between atoms: _48  and  _51
REMARK   22  A    between atoms: _51  and  _52
REMARK   23  A    between atoms: _54  and  _56
REMARK   24  A    between atoms: _56  and  _57
REMARK   25  A    between atoms: _56  and  _59
REMARK   26  A    between atoms: _59  and  _60
REMARK   27  A    between atoms: _60  and  _61
REMARK   28  A    between atoms: _64  and  _66
REMARK   29  A    between atoms: _66  and  _67
REMARK   30  A    between atoms: _66  and  _69
REMARK   31  A    between atoms: _69  and  _70
REMARK   32  A    between atoms: _72  and  _74
REMARK   33  A    between atoms: _74  and  _75
REMARK   34  A    between atoms: _74  and  _77
REMARK   35  A    between atoms: _77  and  _78
REMARK   36  A    between atoms: _81  and  _83
REMARK   37  A    between atoms: _83  and  _84
REMARK   38  A    between atoms: _87  and  _89
REMARK   39  A    between atoms: _89  and  _90
REMARK   40  A    between atoms: _89  and  _92
REMARK   41  A    between atoms: _92  and  _93
REMARK   42  A    between atoms: _93  and  _94
REMARK   43  A    between atoms: _94  and  _95
REMARK   44  A    between atoms: _95  and  _96
REMARK   45  A    between atoms: _100  and  _102
REMARK   46  A    between atoms: _102  and  _103
REMARK   47  A    between atoms: _102  and  _105
REMARK   48  A    between atoms: _105  and  _106
REMARK   49  A    between atoms: _109  and  _111
REMARK   50  A    between atoms: _111  and  _112
REMARK   51  A    between atoms: _111  and  _114
REMARK   52  A    between atoms: _117  and  _119
REMARK   53  A    between atoms: _119  and  _120
REMARK   54  A    between atoms: _119  and  _122
REMARK   55  A    between atoms: _122  and  _123
REMARK   56  A    between atoms: _126  and  _128
REMARK   57  A    between atoms: _128  and  _129
REMARK   58  A    between atoms: _128  and  _131
REMARK   59  A    between atoms: _131  and  _132
REMARK   60  A    between atoms: _132  and  _133
REMARK   61  A    between atoms: _135  and  _137
REMARK   62  A    between atoms: _137  and  _138
REMARK   63  A    between atoms: _137  and  _140
REMARK   64  A    between atoms: _140  and  _141
REMARK   65  A    between atoms: _147  and  _149
REMARK   66  A    between atoms: _149  and  _150
REMARK   67  A    between atoms: _153  and  _155
REMARK   68  A    between atoms: _155  and  _156
REMARK   69  A    between atoms: _155  and  _158
REMARK   70  A    between atoms: _158  and  _159
REMARK   71  A    between atoms: _164  and  _166
REMARK   72  A    between atoms: _166  and  _167
REMARK   73  A    between atoms: _166  and  _169
REMARK   74  A    between atoms: _169  and  _170
REMARK   75  A    between atoms: _173  and  _175
REMARK   76  A    between atoms: _175  and  _176
REMARK   77  A    between atoms: _175  and  _178
REMARK   78  A    between atoms: _178  and  _179
REMARK   79  A    between atoms: _179  and  _180
REMARK   80  A    between atoms: _185  and  _187
REMARK   81  A    between atoms: _187  and  _188
REMARK   82  A    between atoms: _187  and  _190
REMARK   83  A    between atoms: _190  and  _191
REMARK   84  A    between atoms: _195  and  _196
REMARK   85  A    between atoms: _201  and  _203
REMARK   86  A    between atoms: _203  and  _204
REMARK   87  A    between atoms: _203  and  _206
REMARK   88  A    between atoms: _206  and  _207
REMARK   89  A    between atoms: _212  and  _213
REMARK   90  A    between atoms: _215  and  _217
REMARK   91  A    between atoms: _217  and  _218
REMARK   92  A    between atoms: _217  and  _220
REMARK   93  A    between atoms: _220  and  _221
REMARK   94  A    between atoms: _224  and  _226
REMARK   95  A    between atoms: _226  and  _227
REMARK   96  A    between atoms: _226  and  _229
REMARK   97  A    between atoms: _229  and  _230
REMARK   98  A    between atoms: _232  and  _234
REMARK   99  A    between atoms: _234  and  _235
REMARK  100  A    between atoms: _234  and  _237
REMARK  101  A    between atoms: _237  and  _238
REMARK  102  A    between atoms: _243  and  _245
REMARK  103  A    between atoms: _245  and  _246
REMARK  104  A    between atoms: _245  and  _248
REMARK  105  A    between atoms: _248  and  _249
REMARK  106  A    between atoms: _252  and  _254
REMARK  107  A    between atoms: _254  and  _255
REMARK  108  A    between atoms: _254  and  _257
REMARK  109  A    between atoms: _257  and  _258
REMARK  110  A    between atoms: _269  and  _270
REMARK  111  A    between atoms: _275  and  _277
REMARK  112  A    between atoms: _277  and  _278
REMARK  113  A    between atoms: _277  and  _280
REMARK  114  A    between atoms: _280  and  _281
REMARK  115  A    between atoms: _284  and  _286
REMARK  116  A    between atoms: _286  and  _287
REMARK  117  A    between atoms: _286  and  _289
REMARK  118  A    between atoms: _289  and  _290
REMARK  119  A    between atoms: _295  and  _297
REMARK  120  A    between atoms: _297  and  _298
REMARK  121  A    between atoms: _300  and  _302
REMARK  122  A    between atoms: _302  and  _303
REMARK  123  A    between atoms: _302  and  _305
REMARK  124  A    between atoms: _305  and  _306
REMARK  125  A    between atoms: _316  and  _318
REMARK  126  A    between atoms: _318  and  _319
REMARK  127  A    between atoms: _318  and  _321
REMARK  128  A    between atoms: _321  and  _322
REMARK  129  A    between atoms: _327  and  _328
REMARK  130  A    between atoms: _330  and  _332
REMARK  131  A    between atoms: _332  and  _333
REMARK  132  A    between atoms: _332  and  _335
REMARK  133  A    between atoms: _335  and  _336
REMARK  134  A    between atoms: _339  and  _341
REMARK  135  A    between atoms: _341  and  _342
REMARK  136  A    between atoms: _341  and  _344
REMARK  137  A    between atoms: _344  and  _345
REMARK  138  A    between atoms: _350  and  _352
REMARK  139  A    between atoms: _352  and  _353
REMARK  140  A    between atoms: _352  and  _355
REMARK  141  A    between atoms: _355  and  _356
REMARK  142  A    between atoms: _361  and  _363
REMARK  143  A    between atoms: _363  and  _364
REMARK  144  A    between atoms: _363  and  _366
REMARK  145  A    between atoms: _366  and  _367
REMARK  146  A    between atoms: _367  and  _368
REMARK  147  A    between atoms: _371  and  _373
REMARK  148  A    between atoms: _373  and  _374
REMARK  149  A    between atoms: _376  and  _378
REMARK  150  A    between atoms: _378  and  _379
REMARK  151  A    between atoms: _378  and  _381
REMARK  152  A    between atoms: _381  and  _382
REMARK  153  A    between atoms: _384  and  _386
REMARK  154  A    between atoms: _386  and  _387
REMARK  155  A    between atoms: _386  and  _389
REMARK  156  A    between atoms: _389  and  _390
REMARK  157  A    between atoms: _395  and  _396
REMARK  158  A    between atoms: _398  and  _400
REMARK  159  A    between atoms: _400  and  _401
REMARK  160  A    between atoms: _400  and  _403
REMARK  161  A    between atoms: _403  and  _404
REMARK  162  A    between atoms: _409  and  _411
REMARK  163  A    between atoms: _411  and  _412
REMARK  164  A    between atoms: _414  and  _416
REMARK  165  A    between atoms: _416  and  _417
REMARK  166  A    between atoms: _416  and  _419
REMARK  167  A    between atoms: _419  and  _420
REMARK  168  A    between atoms: _425  and  _427
REMARK  169  A    between atoms: _427  and  _428
REMARK  170  A    between atoms: _427  and  _430
REMARK  171  A    between atoms: _430  and  _431
REMARK  172  A    between atoms: _441  and  _443
REMARK  173  A    between atoms: _443  and  _444
REMARK  174  A    between atoms: _443  and  _446
REMARK  175  A    between atoms: _446  and  _447
REMARK  176  A    between atoms: _452  and  _454
REMARK  177  A    between atoms: _454  and  _455
REMARK  178  A    between atoms: _454  and  _457
REMARK  179  A    between atoms: _457  and  _458
REMARK  180  A    between atoms: _458  and  _459
REMARK  181  A    between atoms: _459  and  _460
REMARK  182  A    between atoms: _460  and  _461
REMARK  183  A    between atoms: _465  and  _467
REMARK  184  A    between atoms: _467  and  _468
REMARK  185  A    between atoms: _467  and  _470
REMARK  186  A    between atoms: _470  and  _471
REMARK  187  A    between atoms: _477  and  _479
REMARK  188  A    between atoms: _479  and  _480
REMARK  189  A    between atoms: _482  and  _484
REMARK  190  A    between atoms: _484  and  _485
REMARK  191  A    between atoms: _484  and  _487
REMARK  192  A    between atoms: _487  and  _488
REMARK  193  A    between atoms: _490  and  _492
REMARK  194  A    between atoms: _492  and  _493
REMARK  195  A    between atoms: _492  and  _495
REMARK  196  A    between atoms: _495  and  _496
REMARK  197  A    between atoms: _496  and  _497
REMARK  198  A    between atoms: _497  and  _498
REMARK  199  A    between atoms: _498  and  _499
REMARK  200  A    between atoms: _503  and  _505
REMARK  201  A    between atoms: _505  and  _506
REMARK  202  A    between atoms: _505  and  _508
REMARK  203  A    between atoms: _508  and  _509
REMARK  204  A    between atoms: _514  and  _516
REMARK  205  A    between atoms: _516  and  _517
REMARK  206  A    between atoms: _516  and  _519
REMARK  207  A    between atoms: _519  and  _520
REMARK  208  A    between atoms: _520  and  _521
REMARK  209  A    between atoms: _521  and  _522
REMARK  210  A    between atoms: _531  and  _533
REMARK  211  A    between atoms: _533  and  _534
REMARK  212  A    between atoms: _533  and  _536
REMARK  213  A    between atoms: _536  and  _537
REMARK  214  A    between atoms: _537  and  _538
REMARK  215  A    between atoms: _543  and  _545
REMARK  216  A    between atoms: _545  and  _546
REMARK  217  A    between atoms: _545  and  _548
REMARK  218  A    between atoms: _548  and  _549
REMARK  219  A    between atoms: _549  and  _550
REMARK  220  A    between atoms: _555  and  _557
REMARK  221  A    between atoms: _557  and  _558
REMARK  222  A    between atoms: _557  and  _560
REMARK  223  A    between atoms: _560  and  _561
REMARK  224  A    between atoms: _564  and  _566
REMARK  225  A    between atoms: _566  and  _567
REMARK  226  A    between atoms: _566  and  _569
REMARK  227  A    between atoms: _569  and  _570
REMARK  228  A    between atoms: _570  and  _571
REMARK  229  A    between atoms: _573  and  _575
REMARK  230  A    between atoms: _575  and  _576
REMARK  231  A    between atoms: _575  and  _578
REMARK  232  A    between atoms: _578  and  _579
REMARK  233  A    between atoms: _581  and  _583
REMARK  234  A    between atoms: _583  and  _584
REMARK  235  A    between atoms: _586  and  _588
REMARK  236  A    between atoms: _588  and  _589
REMARK  237  A    between atoms: _588  and  _591
REMARK  238  A    between atoms: _591  and  _592
REMARK  239  A    between atoms: _597  and  _598
REMARK  240  A    between atoms: _600  and  _602
REMARK  241  A    between atoms: _602  and  _603
REMARK  242  A    between atoms: _602  and  _605
REMARK  243  A    between atoms: _605  and  _606
REMARK  244  A    between atoms: _616  and  _618
REMARK  245  A    between atoms: _618  and  _619
REMARK  246  A    between atoms: _618  and  _621
REMARK  247  A    between atoms: _621  and  _622
REMARK  248  A    between atoms: _625  and  _627
REMARK  249  A    between atoms: _627  and  _628
REMARK  250  A    between atoms: _631  and  _633
REMARK  251  A    between atoms: _633  and  _634
REMARK  252  A    between atoms: _637  and  _639
REMARK  253  A    between atoms: _639  and  _640
REMARK  254  A    between atoms: _639  and  _642
REMARK  255  A    between atoms: _642  and  _643
REMARK  256  A    between atoms: _647  and  _648
REMARK                            x       y       z     vdW  Elec       q    Type
REMARK                         _______ _______ _______ _____ _____    ______ ____
ROOT
ATOM      1  NE  ARG A   1      42.240  64.926  21.553  0.00  0.00    -0.265 N 
ATOM      2  CZ  ARG A   1      40.984  65.093  21.953  0.00  0.00    +0.342 C 
ATOM      3  NH2 ARG A   1      40.568  66.250  22.443  0.00  0.00    -0.292 N 
ATOM      4 HH21 ARG A   1      39.581  66.360  22.750  0.00  0.00    +0.255 HD
ATOM      5 HH22 ARG A   1      41.229  67.050  22.521  0.00  0.00    +0.255 HD
ATOM      6  NH1 ARG A   1      40.130  64.069  21.854  0.00  0.00    -0.292 N 
ATOM      7 HH11 ARG A   1      39.143  64.183  22.163  0.00  0.00    +0.255 HD
ATOM      8 HH12 ARG A   1      40.452  63.158  21.468  0.00  0.00    +0.255 HD
ATOM      9  HE  ARG A   1      42.503  63.988  21.190  0.00  0.00    +0.259 HD
ENDROOT
BRANCH   1  10
ATOM     10  CD  ARG A   1      43.286  65.951  21.580  0.00  0.00    +0.174 C 
BRANCH  10  11
ATOM     11  CG  ARG A   1      44.004  66.035  20.205  0.00  0.00    +0.045 C 
BRANCH  11  12
ATOM     12  CB  ARG A   1      44.699  64.750  19.870  0.00  0.00    +0.029 C 
BRANCH  12  13
ATOM     13  CA  ARG A   1      45.269  64.622  18.441  0.00  0.00    +0.133 C 
BRANCH  13  14
ATOM     14  N   ARG A   1      46.122  65.774  18.155  0.00  0.00    -0.239 NA
ATOM     15  H   ARG A   1      45.740  66.626  17.698  0.00  0.00    +0.142 HD
ENDBRANCH  13  14
BRANCH  13  16
ATOM     16  C   ARG A   1      44.167  64.368  17.409  0.00  0.00    +0.224 C 
ATOM     17  O   ARG A   1      43.162  63.704  17.696  0.00  0.00    -0.287 OA
ENDBRANCH  13  16
ENDBRANCH  12  13
ENDBRANCH  11  12
ENDBRANCH  10  11
ENDBRANCH   1  10
TORSDOF 6
REMARK  Name = ../refined-set-2016/4uac/4uac_pocket.pdb
REMARK  256 active torsions:
REMARK  status: ('A' for Active; 'I' for Inactive)
REMARK    1  A    between atoms: _1  and  _3
REMARK    2  A    between atoms: _3  and  _4
REMARK    3  A    between atoms: _7  and  _8
REMARK    4  A    between atoms: _13  and  _15
REMARK    5  A    between atoms: _15  and  _16
REMARK    6  A    between atoms: _19  and  _21
REMARK    7  A    between atoms: _21  and  _22
REMARK    8  A    between atoms: _21  and  _24
REMARK    9  A    between atoms: _24  and  _25
REMARK   10  A    between atoms: _25  and  _26
REMARK   11  A    between atoms: _29  and  _31
REMARK   12  A    between atoms: _31  and  _32
REMARK   13  A    between atoms: _31  and  _34
REMARK   14  A    between atoms: _34  and  _35
REMARK   15  A    between atoms: _38  and  _40
REMARK   16  A    between atoms: _40  and  _41
REMARK   17  A    between atoms: _40  and  _43
REMARK   18  A    between atoms: _43  and  _44
REMARK   19  A    between atoms: _46  and  _48
REMARK   20  A    between atoms: _48  and  _49
REMARK   21  A    between atoms: _48  and  _51
REMARK   22  A    between atoms: _51  and  _52
REMARK   23  A    between atoms: _54  and  _56
REMARK   24  A    between atoms: _56  and  _57
REMARK   25  A    between atoms: _56  and  _59
REMARK   26  A    between atoms: _59  and  _60
REMARK   27  A    between atoms: _60  and  _61
REMARK   28  A    between atoms: _64  and  _66
REMARK   29  A    between atoms: _66  and  _67
REMARK   30  A    between atoms: _66  and  _69
REMARK   31  A    between atoms: _69  and  _70
REMARK   32  A    between atoms: _72  and  _74
REMARK   33  A    between atoms: _74  and  _75
REMARK   34  A    between atoms: _74  and  _77
REMARK   35  A    between atoms: _77  and  _78
REMARK   36  A    between atoms: _81  and  _83
REMARK   37  A    between atoms: _83  and  _84
REMARK   38  A    between atoms: _87  and  _89
REMARK   39  A    between atoms: _89  and  _90
REMARK   40  A    between atoms: _89  and  _92
REMARK   41  A    between atoms: _92  and  _93
REMARK   42  A    between atoms: _93  and  _94
REMARK   43  A    between atoms: _94  and  _95
REMARK   44  A    between atoms: _95  and  _96
REMARK   45  A    between atoms: _100  and  _102
REMARK   46  A    between atoms: _102  and  _103
REMARK   47  A    between atoms: _102  and  _105
REMARK   48  A    between atoms: _105  and  _106
REMARK   49  A    between atoms: _109  and  _111
REMARK   50  A    between atoms: _111  and  _112
REMARK   51  A    between atoms: _111  and  _114
REMARK   52  A    between atoms: _117  and  _119
REMARK   53  A    between atoms: _119  and  _120
REMARK   54  A    between atoms: _119  and  _122
REMARK   55  A    between atoms: _122  and  _123
REMARK   56  A    between atoms: _126  and  _128
REMARK   57  A    between atoms: _128  and  _129
REMARK   58  A    between atoms: _128  and  _131
REMARK   59  A    between atoms: _131  and  _132
REMARK   60  A    between atoms: _132  and  _133
REMARK   61  A    between atoms: _135  and  _137
REMARK   62  A    between atoms: _137  and  _138
REMARK   63  A    between atoms: _137  and  _140
REMARK   64  A    between atoms: _140  and  _141
REMARK   65  A    between atoms: _147  and  _149
REMARK   66  A    between atoms: _149  and  _150
REMARK   67  A    between atoms: _153  and  _155
REMARK   68  A    between atoms: _155  and  _156
REMARK   69  A    between atoms: _155  and  _158
REMARK   70  A    between atoms: _158  and  _159
REMARK   71  A    between atoms: _164  and  _166
REMARK   72  A    between atoms: _166  and  _167
REMARK   73  A    between atoms: _166  and  _169
REMARK   74  A    between atoms: _169  and  _170
REMARK   75  A    between atoms: _173  and  _175
REMARK   76  A    between atoms: _175  and  _176
REMARK   77  A    between atoms: _175  and  _178
REMARK   78  A    between atoms: _178  and  _179
REMARK   79  A    between atoms: _179  and  _180
REMARK   80  A    between atoms: _185  and  _187
REMARK   81  A    between atoms: _187  and  _188
REMARK   82  A    between atoms: _187  and  _190
REMARK   83  A    between atoms: _190  and  _191
REMARK   84  A    between atoms: _195  and  _196
REMARK   85  A    between atoms: _201  and  _203
REMARK   86  A    between atoms: _203  and  _204
REMARK   87  A    between atoms: _203  and  _206
REMARK   88  A    between atoms: _206  and  _207
REMARK   89  A    between atoms: _212  and  _213
REMARK   90  A    between atoms: _215  and  _217
REMARK   91  A    between atoms: _217  and  _218
REMARK   92  A    between atoms: _217  and  _220
REMARK   93  A    between atoms: _220  and  _221
REMARK   94  A    between atoms: _224  and  _226
REMARK   95  A    between atoms: _226  and  _227
REMARK   96  A    between atoms: _226  and  _229
REMARK   97  A    between atoms: _229  and  _230
REMARK   98  A    between atoms: _232  and  _234
REMARK   99  A    between atoms: _234  and  _235
REMARK  100  A    between atoms: _234  and  _237
REMARK  101  A    between atoms: _237  and  _238
REMARK  102  A    between atoms: _243  and  _245
REMARK  103  A    between atoms: _245  and  _246
REMARK  104  A    between atoms: _245  and  _248
REMARK  105  A    between atoms: _248  and  _249
REMARK  106  A    between atoms: _252  and  _254
REMARK  107  A    between atoms: _254  and  _255
REMARK  108  A    between atoms: _254  and  _257
REMARK  109  A    between atoms: _257  and  _258
REMARK  110  A    between atoms: _269  and  _270
REMARK  111  A    between atoms: _275  and  _277
REMARK  112  A    between atoms: _277  and  _278
REMARK  113  A    between atoms: _277  and  _280
REMARK  114  A    between atoms: _280  and  _281
REMARK  115  A    between atoms: _284  and  _286
REMARK  116  A    between atoms: _286  and  _287
REMARK  117  A    between atoms: _286  and  _289
REMARK  118  A    between atoms: _289  and  _290
REMARK  119  A    between atoms: _295  and  _297
REMARK  120  A    between atoms: _297  and  _298
REMARK  121  A    between atoms: _300  and  _302
REMARK  122  A    between atoms: _302  and  _303
REMARK  123  A    between atoms: _302  and  _305
REMARK  124  A    between atoms: _305  and  _306
REMARK  125  A    between atoms: _316  and  _318
REMARK  126  A    between atoms: _318  and  _319
REMARK  127  A    between atoms: _318  and  _321
REMARK  128  A    between atoms: _321  and  _322
REMARK  129  A    between atoms: _327  and  _328
REMARK  130  A    between atoms: _330  and  _332
REMARK  131  A    between atoms: _332  and  _333
REMARK  132  A    between atoms: _332  and  _335
REMARK  133  A    between atoms: _335  and  _336
REMARK  134  A    between atoms: _339  and  _341
REMARK  135  A    between atoms: _341  and  _342
REMARK  136  A    between atoms: _341  and  _344
REMARK  137  A    between atoms: _344  and  _345
REMARK  138  A    between atoms: _350  and  _352
REMARK  139  A    between atoms: _352  and  _353
REMARK  140  A    between atoms: _352  and  _355
REMARK  141  A    between atoms: _355  and  _356
REMARK  142  A    between atoms: _361  and  _363
REMARK  143  A    between atoms: _363  and  _364
REMARK  144  A    between atoms: _363  and  _366
REMARK  145  A    between atoms: _366  and  _367
REMARK  146  A    between atoms: _367  and  _368
REMARK  147  A    between atoms: _371  and  _373
REMARK  148  A    between atoms: _373  and  _374
REMARK  149  A    between atoms: _376  and  _378
REMARK  150  A    between atoms: _378  and  _379
REMARK  151  A    between atoms: _378  and  _381
REMARK  152  A    between atoms: _381  and  _382
REMARK  153  A    between atoms: _384  and  _386
REMARK  154  A    between atoms: _386  and  _387
REMARK  155  A    between atoms: _386  and  _389
REMARK  156  A    between atoms: _389  and  _390
REMARK  157  A    between atoms: _395  and  _396
REMARK  158  A    between atoms: _398  and  _400
REMARK  159  A    between atoms: _400  and  _401
REMARK  160  A    between atoms: _400  and  _403
REMARK  161  A    between atoms: _403  and  _404
REMARK  162  A    between atoms: _409  and  _411
REMARK  163  A    between atoms: _411  and  _412
REMARK  164  A    between atoms: _414  and  _416
REMARK  165  A    between atoms: _416  and  _417
REMARK  166  A    between atoms: _416  and  _419
REMARK  167  A    between atoms: _419  and  _420
REMARK  168  A    between atoms: _425  and  _427
REMARK  169  A    between atoms: _427  and  _428
REMARK  170  A    between atoms: _427  and  _430
REMARK  171  A    between atoms: _430  and  _431
REMARK  172  A    between atoms: _441  and  _443
REMARK  173  A    between atoms: _443  and  _444
REMARK  174  A    between atoms: _443  and  _446
REMARK  175  A    between atoms: _446  and  _447
REMARK  176  A    between atoms: _452  and  _454
REMARK  177  A    between atoms: _454  and  _455
REMARK  178  A    between atoms: _454  and  _457
REMARK  179  A    between atoms: _457  and  _458
REMARK  180  A    between atoms: _458  and  _459
REMARK  181  A    between atoms: _459  and  _460
REMARK  182  A    between atoms: _460  and  _461
REMARK  183  A    between atoms: _465  and  _467
REMARK  184  A    between atoms: _467  and  _468
REMARK  185  A    between atoms: _467  and  _470
REMARK  186  A    between atoms: _470  and  _471
REMARK  187  A    between atoms: _477  and  _479
REMARK  188  A    between atoms: _479  and  _480
REMARK  189  A    between atoms: _482  and  _484
REMARK  190  A    between atoms: _484  and  _485
REMARK  191  A    between atoms: _484  and  _487
REMARK  192  A    between atoms: _487  and  _488
REMARK  193  A    between atoms: _490  and  _492
REMARK  194  A    between atoms: _492  and  _493
REMARK  195  A    between atoms: _492  and  _495
REMARK  196  A    between atoms: _495  and  _496
REMARK  197  A    between atoms: _496  and  _497
REMARK  198  A    between atoms: _497  and  _498
REMARK  199  A    between atoms: _498  and  _499
REMARK  200  A    between atoms: _503  and  _505
REMARK  201  A    between atoms: _505  and  _506
REMARK  202  A    between atoms: _505  and  _508
REMARK  203  A    between atoms: _508  and  _509
REMARK  204  A    between atoms: _514  and  _516
REMARK  205  A    between atoms: _516  and  _517
REMARK  206  A    between atoms: _516  and  _519
REMARK  207  A    between atoms: _519  and  _520
REMARK  208  A    between atoms: _520  and  _521
REMARK  209  A    between atoms: _521  and  _522
REMARK  210  A    between atoms: _531  and  _533
REMARK  211  A    between atoms: _533  and  _534
REMARK  212  A    between atoms: _533  and  _536
REMARK  213  A    between atoms: _536  and  _537
REMARK  214  A    between atoms: _537  and  _538
REMARK  215  A    between atoms: _543  and  _545
REMARK  216  A    between atoms: _545  and  _546
REMARK  217  A    between atoms: _545  and  _548
REMARK  218  A    between atoms: _548  and  _549
REMARK  219  A    between atoms: _549  and  _550
REMARK  220  A    between atoms: _555  and  _557
REMARK  221  A    between atoms: _557  and  _558
REMARK  222  A    between atoms: _557  and  _560
REMARK  223  A    between atoms: _560  and  _561
REMARK  224  A    between atoms: _564  and  _566
REMARK  225  A    between atoms: _566  and  _567
REMARK  226  A    between atoms: _566  and  _569
REMARK  227  A    between atoms: _569  and  _570
REMARK  228  A    between atoms: _570  and  _571
REMARK  229  A    between atoms: _573  and  _575
REMARK  230  A    between atoms: _575  and  _576
REMARK  231  A    between atoms: _575  and  _578
REMARK  232  A    between atoms: _578  and  _579
REMARK  233  A    between atoms: _581  and  _583
REMARK  234  A    between atoms: _583  and  _584
REMARK  235  A    between atoms: _586  and  _588
REMARK  236  A    between atoms: _588  and  _589
REMARK  237  A    between atoms: _588  and  _591
REMARK  238  A    between atoms: _591  and  _592
REMARK  239  A    between atoms: _597  and  _598
REMARK  240  A    between atoms: _600  and  _602
REMARK  241  A    between atoms: _602  and  _603
REMARK  242  A    between atoms: _602  and  _605
REMARK  243  A    between atoms: _605  and  _606
REMARK  244  A    between atoms: _616  and  _618
REMARK  245  A    between atoms: _618  and  _619
REMARK  246  A    between atoms: _618  and  _621
REMARK  247  A    between atoms: _621  and  _622
REMARK  248  A    between atoms: _625  and  _627
REMARK  249  A    between atoms: _627  and  _628
REMARK  250  A    between atoms: _631  and  _633
REMARK  251  A    between atoms: _633  and  _634
REMARK  252  A    between atoms: _637  and  _639
REMARK  253  A    between atoms: _639  and  _640
REMARK  254  A    between atoms: _639  and  _642
REMARK  255  A    between atoms: _642  and  _643
REMARK  256  A    between atoms: _647  and  _648
REMARK                            x       y       z     vdW  Elec       q    Type
REMARK                         _______ _______ _______ _____ _____    ______ ____
ROOT
ATOM      1  CB  GLN A   1      40.368  67.378  17.062  0.00  0.00    +0.035 C 
ENDROOT
BRANCH   1   2
ATOM      2  CA  GLN A   1      40.606  66.600  15.766  0.00  0.00    +0.134 C 
BRANCH   2   3
ATOM      3  N   GLN A   1      41.947  66.030  15.745  0.00  0.00    -0.239 NA
ATOM      4  H   GLN A   1      42.713  66.472  16.292  0.00  0.00    +0.142 HD
ENDBRANCH   2   3
BRANCH   2   5
ATOM      5  C   GLN A   1      40.392  67.478  14.532  0.00  0.00    +0.224 C 
ATOM      6  O   GLN A   1      41.211  68.346  14.204  0.00  0.00    -0.287 OA
ENDBRANCH   2   5
ENDBRANCH   1   2
BRANCH   1   7
ATOM      7  CG  GLN A   1      40.519  66.519  18.318  0.00  0.00    +0.087 C 
BRANCH   7   8
ATOM      8  CD  GLN A   1      39.708  65.223  18.276  0.00  0.00    +0.219 C 
ATOM      9  OE1 GLN A   1      38.471  65.235  18.354  0.00  0.00    -0.275 OA
ATOM     10  NE2 GLN A   1      40.401  64.105  18.161  0.00  0.00    -0.329 N 
ATOM     11 HE21 GLN A   1      39.909  63.189  18.133  0.00  0.00    +0.145 HD
ATOM     12 HE22 GLN A   1      41.439  64.140  18.098  0.00  0.00    +0.145 HD
ENDBRANCH   7   8
ENDBRANCH   1   7
TORSDOF 5
REMARK  Name = ../refined-set-2016/4uac/4uac_pocket.pdb
REMARK  256 active torsions:
REMARK  status: ('A' for Active; 'I' for Inactive)
REMARK    1  A    between atoms: _1  and  _3
REMARK    2  A    between atoms: _3  and  _4
REMARK    3  A    between atoms: _7  and  _8
REMARK    4  A    between atoms: _13  and  _15
REMARK    5  A    between atoms: _15  and  _16
REMARK    6  A    between atoms: _19  and  _21
REMARK    7  A    between atoms: _21  and  _22
REMARK    8  A    between atoms: _21  and  _24
REMARK    9  A    between atoms: _24  and  _25
REMARK   10  A    between atoms: _25  and  _26
REMARK   11  A    between atoms: _29  and  _31
REMARK   12  A    between atoms: _31  and  _32
REMARK   13  A    between atoms: _31  and  _34
REMARK   14  A    between atoms: _34  and  _35
REMARK   15  A    between atoms: _38  and  _40
REMARK   16  A    between atoms: _40  and  _41
REMARK   17  A    between atoms: _40  and  _43
REMARK   18  A    between atoms: _43  and  _44
REMARK   19  A    between atoms: _46  and  _48
REMARK   20  A    between atoms: _48  and  _49
REMARK   21  A    between atoms: _48  and  _51
REMARK   22  A    between atoms: _51  and  _52
REMARK   23  A    between atoms: _54  and  _56
REMARK   24  A    between atoms: _56  and  _57
REMARK   25  A    between atoms: _56  and  _59
REMARK   26  A    between atoms: _59  and  _60
REMARK   27  A    between atoms: _60  and  _61
REMARK   28  A    between atoms: _64  and  _66
REMARK   29  A    between atoms: _66  and  _67
REMARK   30  A    between atoms: _66  and  _69
REMARK   31  A    between atoms: _69  and  _70
REMARK   32  A    between atoms: _72  and  _74
REMARK   33  A    between atoms: _74  and  _75
REMARK   34  A    between atoms: _74  and  _77
REMARK   35  A    between atoms: _77  and  _78
REMARK   36  A    between atoms: _81  and  _83
REMARK   37  A    between atoms: _83  and  _84
REMARK   38  A    between atoms: _87  and  _89
REMARK   39  A    between atoms: _89  and  _90
REMARK   40  A    between atoms: _89  and  _92
REMARK   41  A    between atoms: _92  and  _93
REMARK   42  A    between atoms: _93  and  _94
REMARK   43  A    between atoms: _94  and  _95
REMARK   44  A    between atoms: _95  and  _96
REMARK   45  A    between atoms: _100  and  _102
REMARK   46  A    between atoms: _102  and  _103
REMARK   47  A    between atoms: _102  and  _105
REMARK   48  A    between atoms: _105  and  _106
REMARK   49  A    between atoms: _109  and  _111
REMARK   50  A    between atoms: _111  and  _112
REMARK   51  A    between atoms: _111  and  _114
REMARK   52  A    between atoms: _117  and  _119
REMARK   53  A    between atoms: _119  and  _120
REMARK   54  A    between atoms: _119  and  _122
REMARK   55  A    between atoms: _122  and  _123
REMARK   56  A    between atoms: _126  and  _128
REMARK   57  A    between atoms: _128  and  _129
REMARK   58  A    between atoms: _128  and  _131
REMARK   59  A    between atoms: _131  and  _132
REMARK   60  A    between atoms: _132  and  _133
REMARK   61  A    between atoms: _135  and  _137
REMARK   62  A    between atoms: _137  and  _138
REMARK   63  A    between atoms: _137  and  _140
REMARK   64  A    between atoms: _140  and  _141
REMARK   65  A    between atoms: _147  and  _149
REMARK   66  A    between atoms: _149  and  _150
REMARK   67  A    between atoms: _153  and  _155
REMARK   68  A    between atoms: _155  and  _156
REMARK   69  A    between atoms: _155  and  _158
REMARK   70  A    between atoms: _158  and  _159
REMARK   71  A    between atoms: _164  and  _166
REMARK   72  A    between atoms: _166  and  _167
REMARK   73  A    between atoms: _166  and  _169
REMARK   74  A    between atoms: _169  and  _170
REMARK   75  A    between atoms: _173  and  _175
REMARK   76  A    between atoms: _175  and  _176
REMARK   77  A    between atoms: _175  and  _178
REMARK   78  A    between atoms: _178  and  _179
REMARK   79  A    between atoms: _179  and  _180
REMARK   80  A    between atoms: _185  and  _187
REMARK   81  A    between atoms: _187  and  _188
REMARK   82  A    between atoms: _187  and  _190
REMARK   83  A    between atoms: _190  and  _191
REMARK   84  A    between atoms: _195  and  _196
REMARK   85  A    between atoms: _201  and  _203
REMARK   86  A    between atoms: _203  and  _204
REMARK   87  A    between atoms: _203  and  _206
REMARK   88  A    between atoms: _206  and  _207
REMARK   89  A    between atoms: _212  and  _213
REMARK   90  A    between atoms: _215  and  _217
REMARK   91  A    between atoms: _217  and  _218
REMARK   92  A    between atoms: _217  and  _220
REMARK   93  A    between atoms: _220  and  _221
REMARK   94  A    between atoms: _224  and  _226
REMARK   95  A    between atoms: _226  and  _227
REMARK   96  A    between atoms: _226  and  _229
REMARK   97  A    between atoms: _229  and  _230
REMARK   98  A    between atoms: _232  and  _234
REMARK   99  A    between atoms: _234  and  _235
REMARK  100  A    between atoms: _234  and  _237
REMARK  101  A    between atoms: _237  and  _238
REMARK  102  A    between atoms: _243  and  _245
REMARK  103  A    between atoms: _245  and  _246
REMARK  104  A    between atoms: _245  and  _248
REMARK  105  A    between atoms: _248  and  _249
REMARK  106  A    between atoms: _252  and  _254
REMARK  107  A    between atoms: _254  and  _255
REMARK  108  A    between atoms: _254  and  _257
REMARK  109  A    between atoms: _257  and  _258
REMARK  110  A    between atoms: _269  and  _270
REMARK  111  A    between atoms: _275  and  _277
REMARK  112  A    between atoms: _277  and  _278
REMARK  113  A    between atoms: _277  and  _280
REMARK  114  A    between atoms: _280  and  _281
REMARK  115  A    between atoms: _284  and  _286
REMARK  116  A    between atoms: _286  and  _287
REMARK  117  A    between atoms: _286  and  _289
REMARK  118  A    between atoms: _289  and  _290
REMARK  119  A    between atoms: _295  and  _297
REMARK  120  A    between atoms: _297  and  _298
REMARK  121  A    between atoms: _300  and  _302
REMARK  122  A    between atoms: _302  and  _303
REMARK  123  A    between atoms: _302  and  _305
REMARK  124  A    between atoms: _305  and  _306
REMARK  125  A    between atoms: _316  and  _318
REMARK  126  A    between atoms: _318  and  _319
REMARK  127  A    between atoms: _318  and  _321
REMARK  128  A    between atoms: _321  and  _322
REMARK  129  A    between atoms: _327  and  _328
REMARK  130  A    between atoms: _330  and  _332
REMARK  131  A    between atoms: _332  and  _333
REMARK  132  A    between atoms: _332  and  _335
REMARK  133  A    between atoms: _335  and  _336
REMARK  134  A    between atoms: _339  and  _341
REMARK  135  A    between atoms: _341  and  _342
REMARK  136  A    between atoms: _341  and  _344
REMARK  137  A    between atoms: _344  and  _345
REMARK  138  A    between atoms: _350  and  _352
REMARK  139  A    between atoms: _352  and  _353
REMARK  140  A    between atoms: _352  and  _355
REMARK  141  A    between atoms: _355  and  _356
REMARK  142  A    between atoms: _361  and  _363
REMARK  143  A    between atoms: _363  and  _364
REMARK  144  A    between atoms: _363  and  _366
REMARK  145  A    between atoms: _366  and  _367
REMARK  146  A    between atoms: _367  and  _368
REMARK  147  A    between atoms: _371  and  _373
REMARK  148  A    between atoms: _373  and  _374
REMARK  149  A    between atoms: _376  and  _378
REMARK  150  A    between atoms: _378  and  _379
REMARK  151  A    between atoms: _378  and  _381
REMARK  152  A    between atoms: _381  and  _382
REMARK  153  A    between atoms: _384  and  _386
REMARK  154  A    between atoms: _386  and  _387
REMARK  155  A    between atoms: _386  and  _389
REMARK  156  A    between atoms: _389  and  _390
REMARK  157  A    between atoms: _395  and  _396
REMARK  158  A    between atoms: _398  and  _400
REMARK  159  A    between atoms: _400  and  _401
REMARK  160  A    between atoms: _400  and  _403
REMARK  161  A    between atoms: _403  and  _404
REMARK  162  A    between atoms: _409  and  _411
REMARK  163  A    between atoms: _411  and  _412
REMARK  164  A    between atoms: _414  and  _416
REMARK  165  A    between atoms: _416  and  _417
REMARK  166  A    between atoms: _416  and  _419
REMARK  167  A    between atoms: _419  and  _420
REMARK  168  A    between atoms: _425  and  _427
REMARK  169  A    between atoms: _427  and  _428
REMARK  170  A    between atoms: _427  and  _430
REMARK  171  A    between atoms: _430  and  _431
REMARK  172  A    between atoms: _441  and  _443
REMARK  173  A    between atoms: _443  and  _444
REMARK  174  A    between atoms: _443  and  _446
REMARK  175  A    between atoms: _446  and  _447
REMARK  176  A    between atoms: _452  and  _454
REMARK  177  A    between atoms: _454  and  _455
REMARK  178  A    between atoms: _454  and  _457
REMARK  179  A    between atoms: _457  and  _458
REMARK  180  A    between atoms: _458  and  _459
REMARK  181  A    between atoms: _459  and  _460
REMARK  182  A    between atoms: _460  and  _461
REMARK  183  A    between atoms: _465  and  _467
REMARK  184  A    between atoms: _467  and  _468
REMARK  185  A    between atoms: _467  and  _470
REMARK  186  A    between atoms: _470  and  _471
REMARK  187  A    between atoms: _477  and  _479
REMARK  188  A    between atoms: _479  and  _480
REMARK  189  A    between atoms: _482  and  _484
REMARK  190  A    between atoms: _484  and  _485
REMARK  191  A    between atoms: _484  and  _487
REMARK  192  A    between atoms: _487  and  _488
REMARK  193  A    between atoms: _490  and  _492
REMARK  194  A    between atoms: _492  and  _493
REMARK  195  A    between atoms: _492  and  _495
REMARK  196  A    between atoms: _495  and  _496
REMARK  197  A    between atoms: _496  and  _497
REMARK  198  A    between atoms: _497  and  _498
REMARK  199  A    between atoms: _498  and  _499
REMARK  200  A    between atoms: _503  and  _505
REMARK  201  A    between atoms: _505  and  _506
REMARK  202  A    between atoms: _505  and  _508
REMARK  203  A    between atoms: _508  and  _509
REMARK  204  A    between atoms: _514  and  _516
REMARK  205  A    between atoms: _516  and  _517
REMARK  206  A    between atoms: _516  and  _519
REMARK  207  A    between atoms: _519  and  _520
REMARK  208  A    between atoms: _520  and  _521
REMARK  209  A    between atoms: _521  and  _522
REMARK  210  A    between atoms: _531  and  _533
REMARK  211  A    between atoms: _533  and  _534
REMARK  212  A    between atoms: _533  and  _536
REMARK  213  A    between atoms: _536  and  _537
REMARK  214  A    between atoms: _537  and  _538
REMARK  215  A    between atoms: _543  and  _545
REMARK  216  A    between atoms: _545  and  _546
REMARK  217  A    between atoms: _545  and  _548
REMARK  218  A    between atoms: _548  and  _549
REMARK  219  A    between atoms: _549  and  _550
REMARK  220  A    between atoms: _555  and  _557
REMARK  221  A    between atoms: _557  and  _558
REMARK  222  A    between atoms: _557  and  _560
REMARK  223  A    between atoms: _560  and  _561
REMARK  224  A    between atoms: _564  and  _566
REMARK  225  A    between atoms: _566  and  _567
REMARK  226  A    between atoms: _566  and  _569
REMARK  227  A    between atoms: _569  and  _570
REMARK  228  A    between atoms: _570  and  _571
REMARK  229  A    between atoms: _573  and  _575
REMARK  230  A    between atoms: _575  and  _576
REMARK  231  A    between atoms: _575  and  _578
REMARK  232  A    between atoms: _578  and  _579
REMARK  233  A    between atoms: _581  and  _583
REMARK  234  A    between atoms: _583  and  _584
REMARK  235  A    between atoms: _586  and  _588
REMARK  236  A    between atoms: _588  and  _589
REMARK  237  A    between atoms: _588  and  _591
REMARK  238  A    between atoms: _591  and  _592
REMARK  239  A    between atoms: _597  and  _598
REMARK  240  A    between atoms: _600  and  _602
REMARK  241  A    between atoms: _602  and  _603
REMARK  242  A    between atoms: _602  and  _605
REMARK  243  A    between atoms: _605  and  _606
REMARK  244  A    between atoms: _616  and  _618
REMARK  245  A    between atoms: _618  and  _619
REMARK  246  A    between atoms: _618  and  _621
REMARK  247  A    between atoms: _621  and  _622
REMARK  248  A    between atoms: _625  and  _627
REMARK  249  A    between atoms: _627  and  _628
REMARK  250  A    between atoms: _631  and  _633
REMARK  251  A    between atoms: _633  and  _634
REMARK  252  A    between atoms: _637  and  _639
REMARK  253  A    between atoms: _639  and  _640
REMARK  254  A    between atoms: _639  and  _642
REMARK  255  A    between atoms: _642  and  _643
REMARK  256  A    between atoms: _647  and  _648
REMARK                            x       y       z     vdW  Elec       q    Type
REMARK                         _______ _______ _______ _____ _____    ______ ____
ROOT
ATOM      1  CB  GLN A   1      22.719  70.329  16.724  0.00  0.00    +0.035 C 
ENDROOT
BRANCH   1   2
ATOM      2  CA  GLN A   1      21.402  70.318  15.929  0.00  0.00    +0.134 C 
BRANCH   2   3
ATOM      3  N   GLN A   1      21.703  70.404  14.504  0.00  0.00    -0.239 NA
ATOM      4  H   GLN A   1      22.696  70.475  14.203  0.00  0.00    +0.142 HD
ENDBRANCH   2   3
BRANCH   2   5
ATOM      5  C   GLN A   1      20.508  71.486  16.370  0.00  0.00    +0.224 C 
ATOM      6  O   GLN A   1      20.896  72.630  16.232  0.00  0.00    -0.287 OA
ENDBRANCH   2   5
ENDBRANCH   1   2
BRANCH   1   7
ATOM      7  CG  GLN A   1      22.569  70.468  18.234  0.00  0.00    +0.087 C 
BRANCH   7   8
ATOM      8  CD  GLN A   1      21.858  69.287  18.857  0.00  0.00    +0.219 C 
ATOM      9  NE2 GLN A   1      20.710  69.553  19.478  0.00  0.00    -0.329 N 
ATOM     10 HE21 GLN A   1      20.179  68.787  19.939  0.00  0.00    +0.145 HD
ATOM     11 HE22 GLN A   1      20.345  70.527  19.501  0.00  0.00    +0.145 HD
ATOM     12  OE1 GLN A   1      22.328  68.161  18.802  0.00  0.00    -0.275 OA
ENDBRANCH   7   8
ENDBRANCH   1   7
TORSDOF 5
REMARK  Name = ../refined-set-2016/4uac/4uac_pocket.pdb
REMARK  256 active torsions:
REMARK  status: ('A' for Active; 'I' for Inactive)
REMARK    1  A    between atoms: _1  and  _3
REMARK    2  A    between atoms: _3  and  _4
REMARK    3  A    between atoms: _7  and  _8
REMARK    4  A    between atoms: _13  and  _15
REMARK    5  A    between atoms: _15  and  _16
REMARK    6  A    between atoms: _19  and  _21
REMARK    7  A    between atoms: _21  and  _22
REMARK    8  A    between atoms: _21  and  _24
REMARK    9  A    between atoms: _24  and  _25
REMARK   10  A    between atoms: _25  and  _26
REMARK   11  A    between atoms: _29  and  _31
REMARK   12  A    between atoms: _31  and  _32
REMARK   13  A    between atoms: _31  and  _34
REMARK   14  A    between atoms: _34  and  _35
REMARK   15  A    between atoms: _38  and  _40
REMARK   16  A    between atoms: _40  and  _41
REMARK   17  A    between atoms: _40  and  _43
REMARK   18  A    between atoms: _43  and  _44
REMARK   19  A    between atoms: _46  and  _48
REMARK   20  A    between atoms: _48  and  _49
REMARK   21  A    between atoms: _48  and  _51
REMARK   22  A    between atoms: _51  and  _52
REMARK   23  A    between atoms: _54  and  _56
REMARK   24  A    between atoms: _56  and  _57
REMARK   25  A    between atoms: _56  and  _59
REMARK   26  A    between atoms: _59  and  _60
REMARK   27  A    between atoms: _60  and  _61
REMARK   28  A    between atoms: _64  and  _66
REMARK   29  A    between atoms: _66  and  _67
REMARK   30  A    between atoms: _66  and  _69
REMARK   31  A    between atoms: _69  and  _70
REMARK   32  A    between atoms: _72  and  _74
REMARK   33  A    between atoms: _74  and  _75
REMARK   34  A    between atoms: _74  and  _77
REMARK   35  A    between atoms: _77  and  _78
REMARK   36  A    between atoms: _81  and  _83
REMARK   37  A    between atoms: _83  and  _84
REMARK   38  A    between atoms: _87  and  _89
REMARK   39  A    between atoms: _89  and  _90
REMARK   40  A    between atoms: _89  and  _92
REMARK   41  A    between atoms: _92  and  _93
REMARK   42  A    between atoms: _93  and  _94
REMARK   43  A    between atoms: _94  and  _95
REMARK   44  A    between atoms: _95  and  _96
REMARK   45  A    between atoms: _100  and  _102
REMARK   46  A    between atoms: _102  and  _103
REMARK   47  A    between atoms: _102  and  _105
REMARK   48  A    between atoms: _105  and  _106
REMARK   49  A    between atoms: _109  and  _111
REMARK   50  A    between atoms: _111  and  _112
REMARK   51  A    between atoms: _111  and  _114
REMARK   52  A    between atoms: _117  and  _119
REMARK   53  A    between atoms: _119  and  _120
REMARK   54  A    between atoms: _119  and  _122
REMARK   55  A    between atoms: _122  and  _123
REMARK   56  A    between atoms: _126  and  _128
REMARK   57  A    between atoms: _128  and  _129
REMARK   58  A    between atoms: _128  and  _131
REMARK   59  A    between atoms: _131  and  _132
REMARK   60  A    between atoms: _132  and  _133
REMARK   61  A    between atoms: _135  and  _137
REMARK   62  A    between atoms: _137  and  _138
REMARK   63  A    between atoms: _137  and  _140
REMARK   64  A    between atoms: _140  and  _141
REMARK   65  A    between atoms: _147  and  _149
REMARK   66  A    between atoms: _149  and  _150
REMARK   67  A    between atoms: _153  and  _155
REMARK   68  A    between atoms: _155  and  _156
REMARK   69  A    between atoms: _155  and  _158
REMARK   70  A    between atoms: _158  and  _159
REMARK   71  A    between atoms: _164  and  _166
REMARK   72  A    between atoms: _166  and  _167
REMARK   73  A    between atoms: _166  and  _169
REMARK   74  A    between atoms: _169  and  _170
REMARK   75  A    between atoms: _173  and  _175
REMARK   76  A    between atoms: _175  and  _176
REMARK   77  A    between atoms: _175  and  _178
REMARK   78  A    between atoms: _178  and  _179
REMARK   79  A    between atoms: _179  and  _180
REMARK   80  A    between atoms: _185  and  _187
REMARK   81  A    between atoms: _187  and  _188
REMARK   82  A    between atoms: _187  and  _190
REMARK   83  A    between atoms: _190  and  _191
REMARK   84  A    between atoms: _195  and  _196
REMARK   85  A    between atoms: _201  and  _203
REMARK   86  A    between atoms: _203  and  _204
REMARK   87  A    between atoms: _203  and  _206
REMARK   88  A    between atoms: _206  and  _207
REMARK   89  A    between atoms: _212  and  _213
REMARK   90  A    between atoms: _215  and  _217
REMARK   91  A    between atoms: _217  and  _218
REMARK   92  A    between atoms: _217  and  _220
REMARK   93  A    between atoms: _220  and  _221
REMARK   94  A    between atoms: _224  and  _226
REMARK   95  A    between atoms: _226  and  _227
REMARK   96  A    between atoms: _226  and  _229
REMARK   97  A    between atoms: _229  and  _230
REMARK   98  A    between atoms: _232  and  _234
REMARK   99  A    between atoms: _234  and  _235
REMARK  100  A    between atoms: _234  and  _237
REMARK  101  A    between atoms: _237  and  _238
REMARK  102  A    between atoms: _243  and  _245
REMARK  103  A    between atoms: _245  and  _246
REMARK  104  A    between atoms: _245  and  _248
REMARK  105  A    between atoms: _248  and  _249
REMARK  106  A    between atoms: _252  and  _254
REMARK  107  A    between atoms: _254  and  _255
REMARK  108  A    between atoms: _254  and  _257
REMARK  109  A    between atoms: _257  and  _258
REMARK  110  A    between atoms: _269  and  _270
REMARK  111  A    between atoms: _275  and  _277
REMARK  112  A    between atoms: _277  and  _278
REMARK  113  A    between atoms: _277  and  _280
REMARK  114  A    between atoms: _280  and  _281
REMARK  115  A    between atoms: _284  and  _286
REMARK  116  A    between atoms: _286  and  _287
REMARK  117  A    between atoms: _286  and  _289
REMARK  118  A    between atoms: _289  and  _290
REMARK  119  A    between atoms: _295  and  _297
REMARK  120  A    between atoms: _297  and  _298
REMARK  121  A    between atoms: _300  and  _302
REMARK  122  A    between atoms: _302  and  _303
REMARK  123  A    between atoms: _302  and  _305
REMARK  124  A    between atoms: _305  and  _306
REMARK  125  A    between atoms: _316  and  _318
REMARK  126  A    between atoms: _318  and  _319
REMARK  127  A    between atoms: _318  and  _321
REMARK  128  A    between atoms: _321  and  _322
REMARK  129  A    between atoms: _327  and  _328
REMARK  130  A    between atoms: _330  and  _332
REMARK  131  A    between atoms: _332  and  _333
REMARK  132  A    between atoms: _332  and  _335
REMARK  133  A    between atoms: _335  and  _336
REMARK  134  A    between atoms: _339  and  _341
REMARK  135  A    between atoms: _341  and  _342
REMARK  136  A    between atoms: _341  and  _344
REMARK  137  A    between atoms: _344  and  _345
REMARK  138  A    between atoms: _350  and  _352
REMARK  139  A    between atoms: _352  and  _353
REMARK  140  A    between atoms: _352  and  _355
REMARK  141  A    between atoms: _355  and  _356
REMARK  142  A    between atoms: _361  and  _363
REMARK  143  A    between atoms: _363  and  _364
REMARK  144  A    between atoms: _363  and  _366
REMARK  145  A    between atoms: _366  and  _367
REMARK  146  A    between atoms: _367  and  _368
REMARK  147  A    between atoms: _371  and  _373
REMARK  148  A    between atoms: _373  and  _374
REMARK  149  A    between atoms: _376  and  _378
REMARK  150  A    between atoms: _378  and  _379
REMARK  151  A    between atoms: _378  and  _381
REMARK  152  A    between atoms: _381  and  _382
REMARK  153  A    between atoms: _384  and  _386
REMARK  154  A    between atoms: _386  and  _387
REMARK  155  A    between atoms: _386  and  _389
REMARK  156  A    between atoms: _389  and  _390
REMARK  157  A    between atoms: _395  and  _396
REMARK  158  A    between atoms: _398  and  _400
REMARK  159  A    between atoms: _400  and  _401
REMARK  160  A    between atoms: _400  and  _403
REMARK  161  A    between atoms: _403  and  _404
REMARK  162  A    between atoms: _409  and  _411
REMARK  163  A    between atoms: _411  and  _412
REMARK  164  A    between atoms: _414  and  _416
REMARK  165  A    between atoms: _416  and  _417
REMARK  166  A    between atoms: _416  and  _419
REMARK  167  A    between atoms: _419  and  _420
REMARK  168  A    between atoms: _425  and  _427
REMARK  169  A    between atoms: _427  and  _428
REMARK  170  A    between atoms: _427  and  _430
REMARK  171  A    between atoms: _430  and  _431
REMARK  172  A    between atoms: _441  and  _443
REMARK  173  A    between atoms: _443  and  _444
REMARK  174  A    between atoms: _443  and  _446
REMARK  175  A    between atoms: _446  and  _447
REMARK  176  A    between atoms: _452  and  _454
REMARK  177  A    between atoms: _454  and  _455
REMARK  178  A    between atoms: _454  and  _457
REMARK  179  A    between atoms: _457  and  _458
REMARK  180  A    between atoms: _458  and  _459
REMARK  181  A    between atoms: _459  and  _460
REMARK  182  A    between atoms: _460  and  _461
REMARK  183  A    between atoms: _465  and  _467
REMARK  184  A    between atoms: _467  and  _468
REMARK  185  A    between atoms: _467  and  _470
REMARK  186  A    between atoms: _470  and  _471
REMARK  187  A    between atoms: _477  and  _479
REMARK  188  A    between atoms: _479  and  _480
REMARK  189  A    between atoms: _482  and  _484
REMARK  190  A    between atoms: _484  and  _485
REMARK  191  A    between atoms: _484  and  _487
REMARK  192  A    between atoms: _487  and  _488
REMARK  193  A    between atoms: _490  and  _492
REMARK  194  A    between atoms: _492  and  _493
REMARK  195  A    between atoms: _492  and  _495
REMARK  196  A    between atoms: _495  and  _496
REMARK  197  A    between atoms: _496  and  _497
REMARK  198  A    between atoms: _497  and  _498
REMARK  199  A    between atoms: _498  and  _499
REMARK  200  A    between atoms: _503  and  _505
REMARK  201  A    between atoms: _505  and  _506
REMARK  202  A    between atoms: _505  and  _508
REMARK  203  A    between atoms: _508  and  _509
REMARK  204  A    between atoms: _514  and  _516
REMARK  205  A    between atoms: _516  and  _517
REMARK  206  A    between atoms: _516  and  _519
REMARK  207  A    between atoms: _519  and  _520
REMARK  208  A    between atoms: _520  and  _521
REMARK  209  A    between atoms: _521  and  _522
REMARK  210  A    between atoms: _531  and  _533
REMARK  211  A    between atoms: _533  and  _534
REMARK  212  A    between atoms: _533  and  _536
REMARK  213  A    between atoms: _536  and  _537
REMARK  214  A    between atoms: _537  and  _538
REMARK  215  A    between atoms: _543  and  _545
REMARK  216  A    between atoms: _545  and  _546
REMARK  217  A    between atoms: _545  and  _548
REMARK  218  A    between atoms: _548  and  _549
REMARK  219  A    between atoms: _549  and  _550
REMARK  220  A    between atoms: _555  and  _557
REMARK  221  A    between atoms: _557  and  _558
REMARK  222  A    between atoms: _557  and  _560
REMARK  223  A    between atoms: _560  and  _561
REMARK  224  A    between atoms: _564  and  _566
REMARK  225  A    between atoms: _566  and  _567
REMARK  226  A    between atoms: _566  and  _569
REMARK  227  A    between atoms: _569  and  _570
REMARK  228  A    between atoms: _570  and  _571
REMARK  229  A    between atoms: _573  and  _575
REMARK  230  A    between atoms: _575  and  _576
REMARK  231  A    between atoms: _575  and  _578
REMARK  232  A    between atoms: _578  and  _579
REMARK  233  A    between atoms: _581  and  _583
REMARK  234  A    between atoms: _583  and  _584
REMARK  235  A    between atoms: _586  and  _588
REMARK  236  A    between atoms: _588  and  _589
REMARK  237  A    between atoms: _588  and  _591
REMARK  238  A    between atoms: _591  and  _592
REMARK  239  A    between atoms: _597  and  _598
REMARK  240  A    between atoms: _600  and  _602
REMARK  241  A    between atoms: _602  and  _603
REMARK  242  A    between atoms: _602  and  _605
REMARK  243  A    between atoms: _605  and  _606
REMARK  244  A    between atoms: _616  and  _618
REMARK  245  A    between atoms: _618  and  _619
REMARK  246  A    between atoms: _618  and  _621
REMARK  247  A    between atoms: _621  and  _622
REMARK  248  A    between atoms: _625  and  _627
REMARK  249  A    between atoms: _627  and  _628
REMARK  250  A    between atoms: _631  and  _633
REMARK  251  A    between atoms: _633  and  _634
REMARK  252  A    between atoms: _637  and  _639
REMARK  253  A    between atoms: _639  and  _640
REMARK  254  A    between atoms: _639  and  _642
REMARK  255  A    between atoms: _642  and  _643
REMARK  256  A    between atoms: _647  and  _648
REMARK                            x       y       z     vdW  Elec       q    Type
REMARK                         _______ _______ _______ _____ _____    ______ ____
ROOT
ATOM      1  CA  TRP A   6      17.753  64.063  26.278  0.00  0.00    +0.153 C 
ENDROOT
BRANCH   1   2
ATOM      2  C   TRP A   6      17.388  63.157  27.458  0.00  0.00    +0.241 C 
ATOM      3  N   ASP A   7      16.509  63.651  28.317  0.00  0.00    -0.297 N 
ATOM      4  H   ASP A   7      16.100  64.591  28.142  0.00  0.00    +0.150 HD
ATOM      5  O   TRP A   6      17.887  62.043  27.583  0.00  0.00    -0.273 OA
BRANCH   3   6
ATOM      6  CA  ASP A   7      16.101  62.902  29.507  0.00  0.00    +0.160 C 
BRANCH   6   7
ATOM      7  C   ASP A   7      15.261  61.679  29.161  0.00  0.00    +0.241 C 
ATOM      8  O   ASP A   7      15.517  60.600  29.682  0.00  0.00    -0.273 OA
ATOM      9  N   ALA A   8      14.278  61.834  28.281  0.00  0.00    -0.297 N 
ATOM     10  H   ALA A   8      14.152  62.750  27.805  0.00  0.00    +0.150 HD
BRANCH   9  11
ATOM     11  CA  ALA A   8      13.372  60.727  27.976  0.00  0.00    +0.149 C 
ATOM     12  CB  ALA A   8      12.145  61.214  27.298  0.00  0.00    +0.031 C 
BRANCH  11  13
ATOM     13  C   ALA A   8      14.048  59.675  27.107  0.00  0.00    +0.241 C 
ATOM     14  O   ALA A   8      13.676  58.500  27.144  0.00  0.00    -0.273 OA
ATOM     15  N   ALA A   9      15.038  60.085  26.320  0.00  0.00    -0.297 N 
ATOM     16  H   ALA A   9      15.371  61.068  26.383  0.00  0.00    +0.150 HD
BRANCH  15  17
ATOM     17  CA  ALA A   9      15.660  59.175  25.373  0.00  0.00    +0.149 C 
ATOM     18  CB  ALA A   9      16.679  59.920  24.527  0.00  0.00    +0.031 C 
BRANCH  17  19
ATOM     19  C   ALA A   9      16.329  57.986  26.046  0.00  0.00    +0.241 C 
ATOM     20  N   THR A  10      16.939  58.221  27.201  0.00  0.00    -0.295 N 
ATOM     21  H   THR A  10      16.834  59.147  27.663  0.00  0.00    +0.150 HD
ATOM     22  O   ALA A   9      16.349  56.891  25.509  0.00  0.00    -0.273 OA
BRANCH  20  23
ATOM     23  CA  THR A  10      17.748  57.197  27.819  0.00  0.00    +0.176 C 
BRANCH  23  24
ATOM     24  C   THR A  10      16.913  56.011  28.333  0.00  0.00    +0.246 C 
ATOM     25  N   PRO A  11      15.873  56.270  29.133  0.00  0.00    -0.273 N 
ATOM     26  CD  PRO A  11      15.511  57.486  29.869  0.00  0.00    +0.094 C 
ATOM     27  CG  PRO A  11      14.121  57.185  30.331  0.00  0.00    +0.024 C 
ATOM     28  CB  PRO A  11      14.074  55.731  30.563  0.00  0.00    +0.030 C 
ATOM     29  CA  PRO A  11      15.050  55.125  29.545  0.00  0.00    +0.140 C 
ATOM     30  O   THR A  10      17.185  54.863  27.956  0.00  0.00    -0.273 OA
BRANCH  29  31
ATOM     31  C   PRO A  11      14.324  54.469  28.384  0.00  0.00    +0.227 C 
ATOM     32  O   PRO A  11      14.117  53.261  28.425  0.00  0.00    -0.286 OA
ENDBRANCH  29  31
ENDBRANCH  23  24
BRANCH  23  33
ATOM     33  CB  THR A  10      18.608  57.811  28.930  0.00  0.00    +0.137 C 
ATOM     34  CG2 THR A  10      19.444  56.742  29.606  0.00  0.00    +0.034 C 
BRANCH  33  35
ATOM     35  OG1 THR A  10      19.479  58.799  28.348  0.00  0.00    -0.382 OA
ATOM     36  HG1 THR A  10      20.039  59.202  29.058  0.00  0.00    +0.210 HD
ENDBRANCH  33  35
ENDBRANCH  23  33
ENDBRANCH  20  23
ENDBRANCH  17  19
ENDBRANCH  15  17
ENDBRANCH  11  13
ENDBRANCH   9  11
ENDBRANCH   6   7
BRANCH   6  37
ATOM     37  CB  ASP A   7      15.318  63.802  30.460  0.00  0.00    +0.143 C 
BRANCH  37  38
ATOM     38  CG  ASP A   7      16.211  64.801  31.210  0.00  0.00    +0.367 C 
ATOM     39  OD2 ASP A   7      15.643  65.667  31.910  0.00  0.00    -0.246 OA
ATOM     40  OD1 ASP A   7      17.464  64.724  31.109  0.00  0.00    -0.246 OA
ENDBRANCH  37  38
ENDBRANCH   6  37
ENDBRANCH   3   6
ENDBRANCH   1   2
BRANCH   1  42
ATOM     41  C   TYR A   5      15.516  64.031  25.422  0.00  0.00    +0.241 C 
ATOM     42  N   TRP A   6      16.571  64.756  25.803  0.00  0.00    -0.297 N 
ATOM     43  H   TRP A   6      16.545  65.795  25.760  0.00  0.00    +0.150 HD
ATOM     44  O   TYR A   5      15.549  62.801  25.463  0.00  0.00    -0.273 OA
BRANCH  41  45
ATOM     45  CA  TYR A   5      14.269  64.755  24.893  0.00  0.00    +0.153 C 
BRANCH  45  48
ATOM     46  C   GLY A   4      13.338  65.590  26.961  0.00  0.00    +0.243 C 
ATOM     47  O   GLY A   4      13.080  64.432  27.360  0.00  0.00    -0.273 OA
ATOM     48  N   TYR A   5      13.858  65.843  25.772  0.00  0.00    -0.297 N 
ATOM     49  H   TYR A   5      13.975  66.828  25.461  0.00  0.00    +0.150 HD
BRANCH  46  50
ATOM     50  CA  GLY A   4      13.074  66.810  27.821  0.00  0.00    +0.176 C 
BRANCH  50  53
ATOM     51  C   SER A   3      15.368  67.653  27.976  0.00  0.00    +0.243 C 
ATOM     52  O   SER A   3      15.806  66.580  28.388  0.00  0.00    -0.273 OA
ATOM     53  N   GLY A   4      14.092  67.843  27.664  0.00  0.00    -0.295 N 
ATOM     54  H   GLY A   4      13.805  68.770  27.291  0.00  0.00    +0.150 HD
BRANCH  51  55
ATOM     55  CA  SER A   3      16.319  68.840  27.801  0.00  0.00    +0.178 C 
BRANCH  55  57
ATOM     56  C   MET A   2      16.115  68.877  25.362  0.00  0.00    +0.241 C 
ATOM     57  N   SER A   3      16.204  69.537  26.516  0.00  0.00    -0.295 N 
ATOM     58  H   SER A   3      16.192  70.577  26.505  0.00  0.00    +0.150 HD
ATOM     59  O   MET A   2      16.022  67.664  25.308  0.00  0.00    -0.273 OA
BRANCH  56  60
ATOM     60  CA  MET A   2      16.093  69.718  24.076  0.00  0.00    +0.149 C 
BRANCH  60  62
ATOM     61  C   ASP A   1      15.805  72.151  24.281  0.00  0.00    +0.239 C 
ATOM     62  N   MET A   2      16.591  71.076  24.306  0.00  0.00    -0.297 N 
ATOM     63  H   MET A   2      17.605  71.207  24.498  0.00  0.00    +0.150 HD
ATOM     64  O   ASP A   1      14.577  72.120  24.121  0.00  0.00    -0.274 OA
BRANCH  61  65
ATOM     65  CA  ASP A   1      16.526  73.489  24.450  0.00  0.00    +0.156 C 
BRANCH  65  66
ATOM     66  N   ASP A   1      16.143  74.446  23.405  0.00  0.00    -0.238 NA
ATOM     67  H   ASP A   1      15.778  75.379  23.684  0.00  0.00    +0.142 HD
ENDBRANCH  65  66
BRANCH  65  68
ATOM     68  CB  ASP A   1      16.216  74.082  25.822  0.00  0.00    +0.140 C 
BRANCH  68  69
ATOM     69  CG  ASP A   1      16.861  73.319  26.968  0.00  0.00    +0.367 C 
ATOM     70  OD2 ASP A   1      16.749  73.818  28.116  0.00  0.00    -0.246 OA
ATOM     71  OD1 ASP A   1      17.419  72.215  26.758  0.00  0.00    -0.246 OA
ENDBRANCH  68  69
ENDBRANCH  65  68
ENDBRANCH  61  65
ENDBRANCH  60  62
BRANCH  60  72
ATOM     72  CB  MET A   2      16.922  69.025  22.989  0.00  0.00    +0.041 C 
BRANCH  72  73
ATOM     73  CG  MET A   2      16.520  69.408  21.576  0.00  0.00    +0.060 C 
BRANCH  73  74
ATOM     74  SD  MET A   2      17.451  68.636  20.226  0.00  0.00    -0.139 S 
ATOM     75  CE  MET A   2      17.333  66.897  20.675  0.00  0.00    +0.069 C 
ENDBRANCH  73  74
ENDBRANCH  72  73
ENDBRANCH  60  72
ENDBRANCH  56  60
ENDBRANCH  55  57
BRANCH  55  76
ATOM     76  CB  SER A   3      16.092  69.830  28.964  0.00  0.00    +0.166 C 
BRANCH  76  77
ATOM     77  OG  SER A   3      14.773  70.350  28.984  0.00  0.00    -0.380 OA
ATOM     78  H   SER A   3      14.128  69.606  29.086  0.00  0.00    +0.211 HD
ENDBRANCH  76  77
ENDBRANCH  55  76
ENDBRANCH  51  55
ENDBRANCH  50  53
ENDBRANCH  46  50
ENDBRANCH  45  48
BRANCH  45  79
ATOM     79  CB  TYR A   5      14.523  65.281  23.471  0.00  0.00    +0.055 C 
BRANCH  79  80
ATOM     80  CG  TYR A   5      15.176  64.253  22.592  0.00  0.00    -0.020 A 
ATOM     81  CD2 TYR A   5      16.555  64.156  22.525  0.00  0.00    -0.001 A 
ATOM     82  CE2 TYR A   5      17.164  63.216  21.731  0.00  0.00    +0.036 A 
ATOM     83  CZ  TYR A   5      16.399  62.324  21.024  0.00  0.00    +0.134 A 
ATOM     84  CE1 TYR A   5      15.022  62.396  21.064  0.00  0.00    +0.036 A 
ATOM     85  CD1 TYR A   5      14.418  63.359  21.849  0.00  0.00    -0.001 A 
BRANCH  83  86
ATOM     86  OH  TYR A   5      17.009  61.365  20.257  0.00  0.00    -0.506 OA
ATOM     87  HH  TYR A   5      17.992  61.453  20.341  0.00  0.00    +0.292 HD
ENDBRANCH  83  86
ENDBRANCH  79  80
ENDBRANCH  45  79
ENDBRANCH  41  45
ENDBRANCH   1  42
BRANCH   1  88
ATOM     88  CB  TRP A   6      18.850  65.021  26.729  0.00  0.00    +0.057 C 
BRANCH  88  89
ATOM     89  CG  TRP A   6      19.295  66.069  25.766  0.00  0.00    -0.002 A 
ATOM     90  CD1 TRP A   6      19.328  67.413  26.004  0.00  0.00    +0.068 A 
ATOM     91  NE1 TRP A   6      19.815  68.075  24.912  0.00  0.00    -0.352 N 
ATOM     92  HE1 TRP A   6      19.928  69.106  24.833  0.00  0.00    +0.166 HD
ATOM     93  CE2 TRP A   6      20.131  67.161  23.936  0.00  0.00    +0.056 A 
ATOM     94  CZ2 TRP A   6      20.655  67.354  22.657  0.00  0.00    +0.017 A 
ATOM     95  CH2 TRP A   6      20.848  66.244  21.881  0.00  0.00    +0.001 A 
ATOM     96  CZ3 TRP A   6      20.554  64.957  22.364  0.00  0.00    +0.000 A 
ATOM     97  CE3 TRP A   6      20.036  64.763  23.638  0.00  0.00    +0.001 A 
ATOM     98  CD2 TRP A   6      19.814  65.881  24.447  0.00  0.00    +0.013 A 
ENDBRANCH  88  89
ENDBRANCH   1  88
TORSDOF 37
REMARK  Name = ../refined-set-2016/4uac/4uac_pocket.pdb
REMARK  256 active torsions:
REMARK  status: ('A' for Active; 'I' for Inactive)
REMARK    1  A    between atoms: _1  and  _3
REMARK    2  A    between atoms: _3  and  _4
REMARK    3  A    between atoms: _7  and  _8
REMARK    4  A    between atoms: _13  and  _15
REMARK    5  A    between atoms: _15  and  _16
REMARK    6  A    between atoms: _19  and  _21
REMARK    7  A    between atoms: _21  and  _22
REMARK    8  A    between atoms: _21  and  _24
REMARK    9  A    between atoms: _24  and  _25
REMARK   10  A    between atoms: _25  and  _26
REMARK   11  A    between atoms: _29  and  _31
REMARK   12  A    between atoms: _31  and  _32
REMARK   13  A    between atoms: _31  and  _34
REMARK   14  A    between atoms: _34  and  _35
REMARK   15  A    between atoms: _38  and  _40
REMARK   16  A    between atoms: _40  and  _41
REMARK   17  A    between atoms: _40  and  _43
REMARK   18  A    between atoms: _43  and  _44
REMARK   19  A    between atoms: _46  and  _48
REMARK   20  A    between atoms: _48  and  _49
REMARK   21  A    between atoms: _48  and  _51
REMARK   22  A    between atoms: _51  and  _52
REMARK   23  A    between atoms: _54  and  _56
REMARK   24  A    between atoms: _56  and  _57
REMARK   25  A    between atoms: _56  and  _59
REMARK   26  A    between atoms: _59  and  _60
REMARK   27  A    between atoms: _60  and  _61
REMARK   28  A    between atoms: _64  and  _66
REMARK   29  A    between atoms: _66  and  _67
REMARK   30  A    between atoms: _66  and  _69
REMARK   31  A    between atoms: _69  and  _70
REMARK   32  A    between atoms: _72  and  _74
REMARK   33  A    between atoms: _74  and  _75
REMARK   34  A    between atoms: _74  and  _77
REMARK   35  A    between atoms: _77  and  _78
REMARK   36  A    between atoms: _81  and  _83
REMARK   37  A    between atoms: _83  and  _84
REMARK   38  A    between atoms: _87  and  _89
REMARK   39  A    between atoms: _89  and  _90
REMARK   40  A    between atoms: _89  and  _92
REMARK   41  A    between atoms: _92  and  _93
REMARK   42  A    between atoms: _93  and  _94
REMARK   43  A    between atoms: _94  and  _95
REMARK   44  A    between atoms: _95  and  _96
REMARK   45  A    between atoms: _100  and  _102
REMARK   46  A    between atoms: _102  and  _103
REMARK   47  A    between atoms: _102  and  _105
REMARK   48  A    between atoms: _105  and  _106
REMARK   49  A    between atoms: _109  and  _111
REMARK   50  A    between atoms: _111  and  _112
REMARK   51  A    between atoms: _111  and  _114
REMARK   52  A    between atoms: _117  and  _119
REMARK   53  A    between atoms: _119  and  _120
REMARK   54  A    between atoms: _119  and  _122
REMARK   55  A    between atoms: _122  and  _123
REMARK   56  A    between atoms: _126  and  _128
REMARK   57  A    between atoms: _128  and  _129
REMARK   58  A    between atoms: _128  and  _131
REMARK   59  A    between atoms: _131  and  _132
REMARK   60  A    between atoms: _132  and  _133
REMARK   61  A    between atoms: _135  and  _137
REMARK   62  A    between atoms: _137  and  _138
REMARK   63  A    between atoms: _137  and  _140
REMARK   64  A    between atoms: _140  and  _141
REMARK   65  A    between atoms: _147  and  _149
REMARK   66  A    between atoms: _149  and  _150
REMARK   67  A    between atoms: _153  and  _155
REMARK   68  A    between atoms: _155  and  _156
REMARK   69  A    between atoms: _155  and  _158
REMARK   70  A    between atoms: _158  and  _159
REMARK   71  A    between atoms: _164  and  _166
REMARK   72  A    between atoms: _166  and  _167
REMARK   73  A    between atoms: _166  and  _169
REMARK   74  A    between atoms: _169  and  _170
REMARK   75  A    between atoms: _173  and  _175
REMARK   76  A    between atoms: _175  and  _176
REMARK   77  A    between atoms: _175  and  _178
REMARK   78  A    between atoms: _178  and  _179
REMARK   79  A    between atoms: _179  and  _180
REMARK   80  A    between atoms: _185  and  _187
REMARK   81  A    between atoms: _187  and  _188
REMARK   82  A    between atoms: _187  and  _190
REMARK   83  A    between atoms: _190  and  _191
REMARK   84  A    between atoms: _195  and  _196
REMARK   85  A    between atoms: _201  and  _203
REMARK   86  A    between atoms: _203  and  _204
REMARK   87  A    between atoms: _203  and  _206
REMARK   88  A    between atoms: _206  and  _207
REMARK   89  A    between atoms: _212  and  _213
REMARK   90  A    between atoms: _215  and  _217
REMARK   91  A    between atoms: _217  and  _218
REMARK   92  A    between atoms: _217  and  _220
REMARK   93  A    between atoms: _220  and  _221
REMARK   94  A    between atoms: _224  and  _226
REMARK   95  A    between atoms: _226  and  _227
REMARK   96  A    between atoms: _226  and  _229
REMARK   97  A    between atoms: _229  and  _230
REMARK   98  A    between atoms: _232  and  _234
REMARK   99  A    between atoms: _234  and  _235
REMARK  100  A    between atoms: _234  and  _237
REMARK  101  A    between atoms: _237  and  _238
REMARK  102  A    between atoms: _243  and  _245
REMARK  103  A    between atoms: _245  and  _246
REMARK  104  A    between atoms: _245  and  _248
REMARK  105  A    between atoms: _248  and  _249
REMARK  106  A    between atoms: _252  and  _254
REMARK  107  A    between atoms: _254  and  _255
REMARK  108  A    between atoms: _254  and  _257
REMARK  109  A    between atoms: _257  and  _258
REMARK  110  A    between atoms: _269  and  _270
REMARK  111  A    between atoms: _275  and  _277
REMARK  112  A    between atoms: _277  and  _278
REMARK  113  A    between atoms: _277  and  _280
REMARK  114  A    between atoms: _280  and  _281
REMARK  115  A    between atoms: _284  and  _286
REMARK  116  A    between atoms: _286  and  _287
REMARK  117  A    between atoms: _286  and  _289
REMARK  118  A    between atoms: _289  and  _290
REMARK  119  A    between atoms: _295  and  _297
REMARK  120  A    between atoms: _297  and  _298
REMARK  121  A    between atoms: _300  and  _302
REMARK  122  A    between atoms: _302  and  _303
REMARK  123  A    between atoms: _302  and  _305
REMARK  124  A    between atoms: _305  and  _306
REMARK  125  A    between atoms: _316  and  _318
REMARK  126  A    between atoms: _318  and  _319
REMARK  127  A    between atoms: _318  and  _321
REMARK  128  A    between atoms: _321  and  _322
REMARK  129  A    between atoms: _327  and  _328
REMARK  130  A    between atoms: _330  and  _332
REMARK  131  A    between atoms: _332  and  _333
REMARK  132  A    between atoms: _332  and  _335
REMARK  133  A    between atoms: _335  and  _336
REMARK  134  A    between atoms: _339  and  _341
REMARK  135  A    between atoms: _341  and  _342
REMARK  136  A    between atoms: _341  and  _344
REMARK  137  A    between atoms: _344  and  _345
REMARK  138  A    between atoms: _350  and  _352
REMARK  139  A    between atoms: _352  and  _353
REMARK  140  A    between atoms: _352  and  _355
REMARK  141  A    between atoms: _355  and  _356
REMARK  142  A    between atoms: _361  and  _363
REMARK  143  A    between atoms: _363  and  _364
REMARK  144  A    between atoms: _363  and  _366
REMARK  145  A    between atoms: _366  and  _367
REMARK  146  A    between atoms: _367  and  _368
REMARK  147  A    between atoms: _371  and  _373
REMARK  148  A    between atoms: _373  and  _374
REMARK  149  A    between atoms: _376  and  _378
REMARK  150  A    between atoms: _378  and  _379
REMARK  151  A    between atoms: _378  and  _381
REMARK  152  A    between atoms: _381  and  _382
REMARK  153  A    between atoms: _384  and  _386
REMARK  154  A    between atoms: _386  and  _387
REMARK  155  A    between atoms: _386  and  _389
REMARK  156  A    between atoms: _389  and  _390
REMARK  157  A    between atoms: _395  and  _396
REMARK  158  A    between atoms: _398  and  _400
REMARK  159  A    between atoms: _400  and  _401
REMARK  160  A    between atoms: _400  and  _403
REMARK  161  A    between atoms: _403  and  _404
REMARK  162  A    between atoms: _409  and  _411
REMARK  163  A    between atoms: _411  and  _412
REMARK  164  A    between atoms: _414  and  _416
REMARK  165  A    between atoms: _416  and  _417
REMARK  166  A    between atoms: _416  and  _419
REMARK  167  A    between atoms: _419  and  _420
REMARK  168  A    between atoms: _425  and  _427
REMARK  169  A    between atoms: _427  and  _428
REMARK  170  A    between atoms: _427  and  _430
REMARK  171  A    between atoms: _430  and  _431
REMARK  172  A    between atoms: _441  and  _443
REMARK  173  A    between atoms: _443  and  _444
REMARK  174  A    between atoms: _443  and  _446
REMARK  175  A    between atoms: _446  and  _447
REMARK  176  A    between atoms: _452  and  _454
REMARK  177  A    between atoms: _454  and  _455
REMARK  178  A    between atoms: _454  and  _457
REMARK  179  A    between atoms: _457  and  _458
REMARK  180  A    between atoms: _458  and  _459
REMARK  181  A    between atoms: _459  and  _460
REMARK  182  A    between atoms: _460  and  _461
REMARK  183  A    between atoms: _465  and  _467
REMARK  184  A    between atoms: _467  and  _468
REMARK  185  A    between atoms: _467  and  _470
REMARK  186  A    between atoms: _470  and  _471
REMARK  187  A    between atoms: _477  and  _479
REMARK  188  A    between atoms: _479  and  _480
REMARK  189  A    between atoms: _482  and  _484
REMARK  190  A    between atoms: _484  and  _485
REMARK  191  A    between atoms: _484  and  _487
REMARK  192  A    between atoms: _487  and  _488
REMARK  193  A    between atoms: _490  and  _492
REMARK  194  A    between atoms: _492  and  _493
REMARK  195  A    between atoms: _492  and  _495
REMARK  196  A    between atoms: _495  and  _496
REMARK  197  A    between atoms: _496  and  _497
REMARK  198  A    between atoms: _497  and  _498
REMARK  199  A    between atoms: _498  and  _499
REMARK  200  A    between atoms: _503  and  _505
REMARK  201  A    between atoms: _505  and  _506
REMARK  202  A    between atoms: _505  and  _508
REMARK  203  A    between atoms: _508  and  _509
REMARK  204  A    between atoms: _514  and  _516
REMARK  205  A    between atoms: _516  and  _517
REMARK  206  A    between atoms: _516  and  _519
REMARK  207  A    between atoms: _519  and  _520
REMARK  208  A    between atoms: _520  and  _521
REMARK  209  A    between atoms: _521  and  _522
REMARK  210  A    between atoms: _531  and  _533
REMARK  211  A    between atoms: _533  and  _534
REMARK  212  A    between atoms: _533  and  _536
REMARK  213  A    between atoms: _536  and  _537
REMARK  214  A    between atoms: _537  and  _538
REMARK  215  A    between atoms: _543  and  _545
REMARK  216  A    between atoms: _545  and  _546
REMARK  217  A    between atoms: _545  and  _548
REMARK  218  A    between atoms: _548  and  _549
REMARK  219  A    between atoms: _549  and  _550
REMARK  220  A    between atoms: _555  and  _557
REMARK  221  A    between atoms: _557  and  _558
REMARK  222  A    between atoms: _557  and  _560
REMARK  223  A    between atoms: _560  and  _561
REMARK  224  A    between atoms: _564  and  _566
REMARK  225  A    between atoms: _566  and  _567
REMARK  226  A    between atoms: _566  and  _569
REMARK  227  A    between atoms: _569  and  _570
REMARK  228  A    between atoms: _570  and  _571
REMARK  229  A    between atoms: _573  and  _575
REMARK  230  A    between atoms: _575  and  _576
REMARK  231  A    between atoms: _575  and  _578
REMARK  232  A    between atoms: _578  and  _579
REMARK  233  A    between atoms: _581  and  _583
REMARK  234  A    between atoms: _583  and  _584
REMARK  235  A    between atoms: _586  and  _588
REMARK  236  A    between atoms: _588  and  _589
REMARK  237  A    between atoms: _588  and  _591
REMARK  238  A    between atoms: _591  and  _592
REMARK  239  A    between atoms: _597  and  _598
REMARK  240  A    between atoms: _600  and  _602
REMARK  241  A    between atoms: _602  and  _603
REMARK  242  A    between atoms: _602  and  _605
REMARK  243  A    between atoms: _605  and  _606
REMARK  244  A    between atoms: _616  and  _618
REMARK  245  A    between atoms: _618  and  _619
REMARK  246  A    between atoms: _618  and  _621
REMARK  247  A    between atoms: _621  and  _622
REMARK  248  A    between atoms: _625  and  _627
REMARK  249  A    between atoms: _627  and  _628
REMARK  250  A    between atoms: _631  and  _633
REMARK  251  A    between atoms: _633  and  _634
REMARK  252  A    between atoms: _637  and  _639
REMARK  253  A    between atoms: _639  and  _640
REMARK  254  A    between atoms: _639  and  _642
REMARK  255  A    between atoms: _642  and  _643
REMARK  256  A    between atoms: _647  and  _648
REMARK                            x       y       z     vdW  Elec       q    Type
REMARK                         _______ _______ _______ _____ _____    ______ ____
ROOT
ATOM      1  O   HOH     1      36.983  64.801  30.365  0.00  0.00    +0.000 OA
ENDROOT
TORSDOF 0
REMARK  Name = ../refined-set-2016/4uac/4uac_pocket.pdb
REMARK  256 active torsions:
REMARK  status: ('A' for Active; 'I' for Inactive)
REMARK    1  A    between atoms: _1  and  _3
REMARK    2  A    between atoms: _3  and  _4
REMARK    3  A    between atoms: _7  and  _8
REMARK    4  A    between atoms: _13  and  _15
REMARK    5  A    between atoms: _15  and  _16
REMARK    6  A    between atoms: _19  and  _21
REMARK    7  A    between atoms: _21  and  _22
REMARK    8  A    between atoms: _21  and  _24
REMARK    9  A    between atoms: _24  and  _25
REMARK   10  A    between atoms: _25  and  _26
REMARK   11  A    between atoms: _29  and  _31
REMARK   12  A    between atoms: _31  and  _32
REMARK   13  A    between atoms: _31  and  _34
REMARK   14  A    between atoms: _34  and  _35
REMARK   15  A    between atoms: _38  and  _40
REMARK   16  A    between atoms: _40  and  _41
REMARK   17  A    between atoms: _40  and  _43
REMARK   18  A    between atoms: _43  and  _44
REMARK   19  A    between atoms: _46  and  _48
REMARK   20  A    between atoms: _48  and  _49
REMARK   21  A    between atoms: _48  and  _51
REMARK   22  A    between atoms: _51  and  _52
REMARK   23  A    between atoms: _54  and  _56
REMARK   24  A    between atoms: _56  and  _57
REMARK   25  A    between atoms: _56  and  _59
REMARK   26  A    between atoms: _59  and  _60
REMARK   27  A    between atoms: _60  and  _61
REMARK   28  A    between atoms: _64  and  _66
REMARK   29  A    between atoms: _66  and  _67
REMARK   30  A    between atoms: _66  and  _69
REMARK   31  A    between atoms: _69  and  _70
REMARK   32  A    between atoms: _72  and  _74
REMARK   33  A    between atoms: _74  and  _75
REMARK   34  A    between atoms: _74  and  _77
REMARK   35  A    between atoms: _77  and  _78
REMARK   36  A    between atoms: _81  and  _83
REMARK   37  A    between atoms: _83  and  _84
REMARK   38  A    between atoms: _87  and  _89
REMARK   39  A    between atoms: _89  and  _90
REMARK   40  A    between atoms: _89  and  _92
REMARK   41  A    between atoms: _92  and  _93
REMARK   42  A    between atoms: _93  and  _94
REMARK   43  A    between atoms: _94  and  _95
REMARK   44  A    between atoms: _95  and  _96
REMARK   45  A    between atoms: _100  and  _102
REMARK   46  A    between atoms: _102  and  _103
REMARK   47  A    between atoms: _102  and  _105
REMARK   48  A    between atoms: _105  and  _106
REMARK   49  A    between atoms: _109  and  _111
REMARK   50  A    between atoms: _111  and  _112
REMARK   51  A    between atoms: _111  and  _114
REMARK   52  A    between atoms: _117  and  _119
REMARK   53  A    between atoms: _119  and  _120
REMARK   54  A    between atoms: _119  and  _122
REMARK   55  A    between atoms: _122  and  _123
REMARK   56  A    between atoms: _126  and  _128
REMARK   57  A    between atoms: _128  and  _129
REMARK   58  A    between atoms: _128  and  _131
REMARK   59  A    between atoms: _131  and  _132
REMARK   60  A    between atoms: _132  and  _133
REMARK   61  A    between atoms: _135  and  _137
REMARK   62  A    between atoms: _137  and  _138
REMARK   63  A    between atoms: _137  and  _140
REMARK   64  A    between atoms: _140  and  _141
REMARK   65  A    between atoms: _147  and  _149
REMARK   66  A    between atoms: _149  and  _150
REMARK   67  A    between atoms: _153  and  _155
REMARK   68  A    between atoms: _155  and  _156
REMARK   69  A    between atoms: _155  and  _158
REMARK   70  A    between atoms: _158  and  _159
REMARK   71  A    between atoms: _164  and  _166
REMARK   72  A    between atoms: _166  and  _167
REMARK   73  A    between atoms: _166  and  _169
REMARK   74  A    between atoms: _169  and  _170
REMARK   75  A    between atoms: _173  and  _175
REMARK   76  A    between atoms: _175  and  _176
REMARK   77  A    between atoms: _175  and  _178
REMARK   78  A    between atoms: _178  and  _179
REMARK   79  A    between atoms: _179  and  _180
REMARK   80  A    between atoms: _185  and  _187
REMARK   81  A    between atoms: _187  and  _188
REMARK   82  A    between atoms: _187  and  _190
REMARK   83  A    between atoms: _190  and  _191
REMARK   84  A    between atoms: _195  and  _196
REMARK   85  A    between atoms: _201  and  _203
REMARK   86  A    between atoms: _203  and  _204
REMARK   87  A    between atoms: _203  and  _206
REMARK   88  A    between atoms: _206  and  _207
REMARK   89  A    between atoms: _212  and  _213
REMARK   90  A    between atoms: _215  and  _217
REMARK   91  A    between atoms: _217  and  _218
REMARK   92  A    between atoms: _217  and  _220
REMARK   93  A    between atoms: _220  and  _221
REMARK   94  A    between atoms: _224  and  _226
REMARK   95  A    between atoms: _226  and  _227
REMARK   96  A    between atoms: _226  and  _229
REMARK   97  A    between atoms: _229  and  _230
REMARK   98  A    between atoms: _232  and  _234
REMARK   99  A    between atoms: _234  and  _235
REMARK  100  A    between atoms: _234  and  _237
REMARK  101  A    between atoms: _237  and  _238
REMARK  102  A    between atoms: _243  and  _245
REMARK  103  A    between atoms: _245  and  _246
REMARK  104  A    between atoms: _245  and  _248
REMARK  105  A    between atoms: _248  and  _249
REMARK  106  A    between atoms: _252  and  _254
REMARK  107  A    between atoms: _254  and  _255
REMARK  108  A    between atoms: _254  and  _257
REMARK  109  A    between atoms: _257  and  _258
REMARK  110  A    between atoms: _269  and  _270
REMARK  111  A    between atoms: _275  and  _277
REMARK  112  A    between atoms: _277  and  _278
REMARK  113  A    between atoms: _277  and  _280
REMARK  114  A    between atoms: _280  and  _281
REMARK  115  A    between atoms: _284  and  _286
REMARK  116  A    between atoms: _286  and  _287
REMARK  117  A    between atoms: _286  and  _289
REMARK  118  A    between atoms: _289  and  _290
REMARK  119  A    between atoms: _295  and  _297
REMARK  120  A    between atoms: _297  and  _298
REMARK  121  A    between atoms: _300  and  _302
REMARK  122  A    between atoms: _302  and  _303
REMARK  123  A    between atoms: _302  and  _305
REMARK  124  A    between atoms: _305  and  _306
REMARK  125  A    between atoms: _316  and  _318
REMARK  126  A    between atoms: _318  and  _319
REMARK  127  A    between atoms: _318  and  _321
REMARK  128  A    between atoms: _321  and  _322
REMARK  129  A    between atoms: _327  and  _328
REMARK  130  A    between atoms: _330  and  _332
REMARK  131  A    between atoms: _332  and  _333
REMARK  132  A    between atoms: _332  and  _335
REMARK  133  A    between atoms: _335  and  _336
REMARK  134  A    between atoms: _339  and  _341
REMARK  135  A    between atoms: _341  and  _342
REMARK  136  A    between atoms: _341  and  _344
REMARK  137  A    between atoms: _344  and  _345
REMARK  138  A    between atoms: _350  and  _352
REMARK  139  A    between atoms: _352  and  _353
REMARK  140  A    between atoms: _352  and  _355
REMARK  141  A    between atoms: _355  and  _356
REMARK  142  A    between atoms: _361  and  _363
REMARK  143  A    between atoms: _363  and  _364
REMARK  144  A    between atoms: _363  and  _366
REMARK  145  A    between atoms: _366  and  _367
REMARK  146  A    between atoms: _367  and  _368
REMARK  147  A    between atoms: _371  and  _373
REMARK  148  A    between atoms: _373  and  _374
REMARK  149  A    between atoms: _376  and  _378
REMARK  150  A    between atoms: _378  and  _379
REMARK  151  A    between atoms: _378  and  _381
REMARK  152  A    between atoms: _381  and  _382
REMARK  153  A    between atoms: _384  and  _386
REMARK  154  A    between atoms: _386  and  _387
REMARK  155  A    between atoms: _386  and  _389
REMARK  156  A    between atoms: _389  and  _390
REMARK  157  A    between atoms: _395  and  _396
REMARK  158  A    between atoms: _398  and  _400
REMARK  159  A    between atoms: _400  and  _401
REMARK  160  A    between atoms: _400  and  _403
REMARK  161  A    between atoms: _403  and  _404
REMARK  162  A    between atoms: _409  and  _411
REMARK  163  A    between atoms: _411  and  _412
REMARK  164  A    between atoms: _414  and  _416
REMARK  165  A    between atoms: _416  and  _417
REMARK  166  A    between atoms: _416  and  _419
REMARK  167  A    between atoms: _419  and  _420
REMARK  168  A    between atoms: _425  and  _427
REMARK  169  A    between atoms: _427  and  _428
REMARK  170  A    between atoms: _427  and  _430
REMARK  171  A    between atoms: _430  and  _431
REMARK  172  A    between atoms: _441  and  _443
REMARK  173  A    between atoms: _443  and  _444
REMARK  174  A    between atoms: _443  and  _446
REMARK  175  A    between atoms: _446  and  _447
REMARK  176  A    between atoms: _452  and  _454
REMARK  177  A    between atoms: _454  and  _455
REMARK  178  A    between atoms: _454  and  _457
REMARK  179  A    between atoms: _457  and  _458
REMARK  180  A    between atoms: _458  and  _459
REMARK  181  A    between atoms: _459  and  _460
REMARK  182  A    between atoms: _460  and  _461
REMARK  183  A    between atoms: _465  and  _467
REMARK  184  A    between atoms: _467  and  _468
REMARK  185  A    between atoms: _467  and  _470
REMARK  186  A    between atoms: _470  and  _471
REMARK  187  A    between atoms: _477  and  _479
REMARK  188  A    between atoms: _479  and  _480
REMARK  189  A    between atoms: _482  and  _484
REMARK  190  A    between atoms: _484  and  _485
REMARK  191  A    between atoms: _484  and  _487
REMARK  192  A    between atoms: _487  and  _488
REMARK  193  A    between atoms: _490  and  _492
REMARK  194  A    between atoms: _492  and  _493
REMARK  195  A    between atoms: _492  and  _495
REMARK  196  A    between atoms: _495  and  _496
REMARK  197  A    between atoms: _496  and  _497
REMARK  198  A    between atoms: _497  and  _498
REMARK  199  A    between atoms: _498  and  _499
REMARK  200  A    between atoms: _503  and  _505
REMARK  201  A    between atoms: _505  and  _506
REMARK  202  A    between atoms: _505  and  _508
REMARK  203  A    between atoms: _508  and  _509
REMARK  204  A    between atoms: _514  and  _516
REMARK  205  A    between atoms: _516  and  _517
REMARK  206  A    between atoms: _516  and  _519
REMARK  207  A    between atoms: _519  and  _520
REMARK  208  A    between atoms: _520  and  _521
REMARK  209  A    between atoms: _521  and  _522
REMARK  210  A    between atoms: _531  and  _533
REMARK  211  A    between atoms: _533  and  _534
REMARK  212  A    between atoms: _533  and  _536
REMARK  213  A    between atoms: _536  and  _537
REMARK  214  A    between atoms: _537  and  _538
REMARK  215  A    between atoms: _543  and  _545
REMARK  216  A    between atoms: _545  and  _546
REMARK  217  A    between atoms: _545  and  _548
REMARK  218  A    between atoms: _548  and  _549
REMARK  219  A    between atoms: _549  and  _550
REMARK  220  A    between atoms: _555  and  _557
REMARK  221  A    between atoms: _557  and  _558
REMARK  222  A    between atoms: _557  and  _560
REMARK  223  A    between atoms: _560  and  _561
REMARK  224  A    between atoms: _564  and  _566
REMARK  225  A    between atoms: _566  and  _567
REMARK  226  A    between atoms: _566  and  _569
REMARK  227  A    between atoms: _569  and  _570
REMARK  228  A    between atoms: _570  and  _571
REMARK  229  A    between atoms: _573  and  _575
REMARK  230  A    between atoms: _575  and  _576
REMARK  231  A    between atoms: _575  and  _578
REMARK  232  A    between atoms: _578  and  _579
REMARK  233  A    between atoms: _581  and  _583
REMARK  234  A    between atoms: _583  and  _584
REMARK  235  A    between atoms: _586  and  _588
REMARK  236  A    between atoms: _588  and  _589
REMARK  237  A    between atoms: _588  and  _591
REMARK  238  A    between atoms: _591  and  _592
REMARK  239  A    between atoms: _597  and  _598
REMARK  240  A    between atoms: _600  and  _602
REMARK  241  A    between atoms: _602  and  _603
REMARK  242  A    between atoms: _602  and  _605
REMARK  243  A    between atoms: _605  and  _606
REMARK  244  A    between atoms: _616  and  _618
REMARK  245  A    between atoms: _618  and  _619
REMARK  246  A    between atoms: _618  and  _621
REMARK  247  A    between atoms: _621  and  _622
REMARK  248  A    between atoms: _625  and  _627
REMARK  249  A    between atoms: _627  and  _628
REMARK  250  A    between atoms: _631  and  _633
REMARK  251  A    between atoms: _633  and  _634
REMARK  252  A    between atoms: _637  and  _639
REMARK  253  A    between atoms: _639  and  _640
REMARK  254  A    between atoms: _639  and  _642
REMARK  255  A    between atoms: _642  and  _643
REMARK  256  A    between atoms: _647  and  _648
REMARK                            x       y       z     vdW  Elec       q    Type
REMARK                         _______ _______ _______ _____ _____    ______ ____
ROOT
ATOM      1  O   HOH     1      29.118  54.885  20.883  0.00  0.00    +0.000 OA
ENDROOT
TORSDOF 0
REMARK  Name = ../refined-set-2016/4uac/4uac_pocket.pdb
REMARK  256 active torsions:
REMARK  status: ('A' for Active; 'I' for Inactive)
REMARK    1  A    between atoms: _1  and  _3
REMARK    2  A    between atoms: _3  and  _4
REMARK    3  A    between atoms: _7  and  _8
REMARK    4  A    between atoms: _13  and  _15
REMARK    5  A    between atoms: _15  and  _16
REMARK    6  A    between atoms: _19  and  _21
REMARK    7  A    between atoms: _21  and  _22
REMARK    8  A    between atoms: _21  and  _24
REMARK    9  A    between atoms: _24  and  _25
REMARK   10  A    between atoms: _25  and  _26
REMARK   11  A    between atoms: _29  and  _31
REMARK   12  A    between atoms: _31  and  _32
REMARK   13  A    between atoms: _31  and  _34
REMARK   14  A    between atoms: _34  and  _35
REMARK   15  A    between atoms: _38  and  _40
REMARK   16  A    between atoms: _40  and  _41
REMARK   17  A    between atoms: _40  and  _43
REMARK   18  A    between atoms: _43  and  _44
REMARK   19  A    between atoms: _46  and  _48
REMARK   20  A    between atoms: _48  and  _49
REMARK   21  A    between atoms: _48  and  _51
REMARK   22  A    between atoms: _51  and  _52
REMARK   23  A    between atoms: _54  and  _56
REMARK   24  A    between atoms: _56  and  _57
REMARK   25  A    between atoms: _56  and  _59
REMARK   26  A    between atoms: _59  and  _60
REMARK   27  A    between atoms: _60  and  _61
REMARK   28  A    between atoms: _64  and  _66
REMARK   29  A    between atoms: _66  and  _67
REMARK   30  A    between atoms: _66  and  _69
REMARK   31  A    between atoms: _69  and  _70
REMARK   32  A    between atoms: _72  and  _74
REMARK   33  A    between atoms: _74  and  _75
REMARK   34  A    between atoms: _74  and  _77
REMARK   35  A    between atoms: _77  and  _78
REMARK   36  A    between atoms: _81  and  _83
REMARK   37  A    between atoms: _83  and  _84
REMARK   38  A    between atoms: _87  and  _89
REMARK   39  A    between atoms: _89  and  _90
REMARK   40  A    between atoms: _89  and  _92
REMARK   41  A    between atoms: _92  and  _93
REMARK   42  A    between atoms: _93  and  _94
REMARK   43  A    between atoms: _94  and  _95
REMARK   44  A    between atoms: _95  and  _96
REMARK   45  A    between atoms: _100  and  _102
REMARK   46  A    between atoms: _102  and  _103
REMARK   47  A    between atoms: _102  and  _105
REMARK   48  A    between atoms: _105  and  _106
REMARK   49  A    between atoms: _109  and  _111
REMARK   50  A    between atoms: _111  and  _112
REMARK   51  A    between atoms: _111  and  _114
REMARK   52  A    between atoms: _117  and  _119
REMARK   53  A    between atoms: _119  and  _120
REMARK   54  A    between atoms: _119  and  _122
REMARK   55  A    between atoms: _122  and  _123
REMARK   56  A    between atoms: _126  and  _128
REMARK   57  A    between atoms: _128  and  _129
REMARK   58  A    between atoms: _128  and  _131
REMARK   59  A    between atoms: _131  and  _132
REMARK   60  A    between atoms: _132  and  _133
REMARK   61  A    between atoms: _135  and  _137
REMARK   62  A    between atoms: _137  and  _138
REMARK   63  A    between atoms: _137  and  _140
REMARK   64  A    between atoms: _140  and  _141
REMARK   65  A    between atoms: _147  and  _149
REMARK   66  A    between atoms: _149  and  _150
REMARK   67  A    between atoms: _153  and  _155
REMARK   68  A    between atoms: _155  and  _156
REMARK   69  A    between atoms: _155  and  _158
REMARK   70  A    between atoms: _158  and  _159
REMARK   71  A    between atoms: _164  and  _166
REMARK   72  A    between atoms: _166  and  _167
REMARK   73  A    between atoms: _166  and  _169
REMARK   74  A    between atoms: _169  and  _170
REMARK   75  A    between atoms: _173  and  _175
REMARK   76  A    between atoms: _175  and  _176
REMARK   77  A    between atoms: _175  and  _178
REMARK   78  A    between atoms: _178  and  _179
REMARK   79  A    between atoms: _179  and  _180
REMARK   80  A    between atoms: _185  and  _187
REMARK   81  A    between atoms: _187  and  _188
REMARK   82  A    between atoms: _187  and  _190
REMARK   83  A    between atoms: _190  and  _191
REMARK   84  A    between atoms: _195  and  _196
REMARK   85  A    between atoms: _201  and  _203
REMARK   86  A    between atoms: _203  and  _204
REMARK   87  A    between atoms: _203  and  _206
REMARK   88  A    between atoms: _206  and  _207
REMARK   89  A    between atoms: _212  and  _213
REMARK   90  A    between atoms: _215  and  _217
REMARK   91  A    between atoms: _217  and  _218
REMARK   92  A    between atoms: _217  and  _220
REMARK   93  A    between atoms: _220  and  _221
REMARK   94  A    between atoms: _224  and  _226
REMARK   95  A    between atoms: _226  and  _227
REMARK   96  A    between atoms: _226  and  _229
REMARK   97  A    between atoms: _229  and  _230
REMARK   98  A    between atoms: _232  and  _234
REMARK   99  A    between atoms: _234  and  _235
REMARK  100  A    between atoms: _234  and  _237
REMARK  101  A    between atoms: _237  and  _238
REMARK  102  A    between atoms: _243  and  _245
REMARK  103  A    between atoms: _245  and  _246
REMARK  104  A    between atoms: _245  and  _248
REMARK  105  A    between atoms: _248  and  _249
REMARK  106  A    between atoms: _252  and  _254
REMARK  107  A    between atoms: _254  and  _255
REMARK  108  A    between atoms: _254  and  _257
REMARK  109  A    between atoms: _257  and  _258
REMARK  110  A    between atoms: _269  and  _270
REMARK  111  A    between atoms: _275  and  _277
REMARK  112  A    between atoms: _277  and  _278
REMARK  113  A    between atoms: _277  and  _280
REMARK  114  A    between atoms: _280  and  _281
REMARK  115  A    between atoms: _284  and  _286
REMARK  116  A    between atoms: _286  and  _287
REMARK  117  A    between atoms: _286  and  _289
REMARK  118  A    between atoms: _289  and  _290
REMARK  119  A    between atoms: _295  and  _297
REMARK  120  A    between atoms: _297  and  _298
REMARK  121  A    between atoms: _300  and  _302
REMARK  122  A    between atoms: _302  and  _303
REMARK  123  A    between atoms: _302  and  _305
REMARK  124  A    between atoms: _305  and  _306
REMARK  125  A    between atoms: _316  and  _318
REMARK  126  A    between atoms: _318  and  _319
REMARK  127  A    between atoms: _318  and  _321
REMARK  128  A    between atoms: _321  and  _322
REMARK  129  A    between atoms: _327  and  _328
REMARK  130  A    between atoms: _330  and  _332
REMARK  131  A    between atoms: _332  and  _333
REMARK  132  A    between atoms: _332  and  _335
REMARK  133  A    between atoms: _335  and  _336
REMARK  134  A    between atoms: _339  and  _341
REMARK  135  A    between atoms: _341  and  _342
REMARK  136  A    between atoms: _341  and  _344
REMARK  137  A    between atoms: _344  and  _345
REMARK  138  A    between atoms: _350  and  _352
REMARK  139  A    between atoms: _352  and  _353
REMARK  140  A    between atoms: _352  and  _355
REMARK  141  A    between atoms: _355  and  _356
REMARK  142  A    between atoms: _361  and  _363
REMARK  143  A    between atoms: _363  and  _364
REMARK  144  A    between atoms: _363  and  _366
REMARK  145  A    between atoms: _366  and  _367
REMARK  146  A    between atoms: _367  and  _368
REMARK  147  A    between atoms: _371  and  _373
REMARK  148  A    between atoms: _373  and  _374
REMARK  149  A    between atoms: _376  and  _378
REMARK  150  A    between atoms: _378  and  _379
REMARK  151  A    between atoms: _378  and  _381
REMARK  152  A    between atoms: _381  and  _382
REMARK  153  A    between atoms: _384  and  _386
REMARK  154  A    between atoms: _386  and  _387
REMARK  155  A    between atoms: _386  and  _389
REMARK  156  A    between atoms: _389  and  _390
REMARK  157  A    between atoms: _395  and  _396
REMARK  158  A    between atoms: _398  and  _400
REMARK  159  A    between atoms: _400  and  _401
REMARK  160  A    between atoms: _400  and  _403
REMARK  161  A    between atoms: _403  and  _404
REMARK  162  A    between atoms: _409  and  _411
REMARK  163  A    between atoms: _411  and  _412
REMARK  164  A    between atoms: _414  and  _416
REMARK  165  A    between atoms: _416  and  _417
REMARK  166  A    between atoms: _416  and  _419
REMARK  167  A    between atoms: _419  and  _420
REMARK  168  A    between atoms: _425  and  _427
REMARK  169  A    between atoms: _427  and  _428
REMARK  170  A    between atoms: _427  and  _430
REMARK  171  A    between atoms: _430  and  _431
REMARK  172  A    between atoms: _441  and  _443
REMARK  173  A    between atoms: _443  and  _444
REMARK  174  A    between atoms: _443  and  _446
REMARK  175  A    between atoms: _446  and  _447
REMARK  176  A    between atoms: _452  and  _454
REMARK  177  A    between atoms: _454  and  _455
REMARK  178  A    between atoms: _454  and  _457
REMARK  179  A    between atoms: _457  and  _458
REMARK  180  A    between atoms: _458  and  _459
REMARK  181  A    between atoms: _459  and  _460
REMARK  182  A    between atoms: _460  and  _461
REMARK  183  A    between atoms: _465  and  _467
REMARK  184  A    between atoms: _467  and  _468
REMARK  185  A    between atoms: _467  and  _470
REMARK  186  A    between atoms: _470  and  _471
REMARK  187  A    between atoms: _477  and  _479
REMARK  188  A    between atoms: _479  and  _480
REMARK  189  A    between atoms: _482  and  _484
REMARK  190  A    between atoms: _484  and  _485
REMARK  191  A    between atoms: _484  and  _487
REMARK  192  A    between atoms: _487  and  _488
REMARK  193  A    between atoms: _490  and  _492
REMARK  194  A    between atoms: _492  and  _493
REMARK  195  A    between atoms: _492  and  _495
REMARK  196  A    between atoms: _495  and  _496
REMARK  197  A    between atoms: _496  and  _497
REMARK  198  A    between atoms: _497  and  _498
REMARK  199  A    between atoms: _498  and  _499
REMARK  200  A    between atoms: _503  and  _505
REMARK  201  A    between atoms: _505  and  _506
REMARK  202  A    between atoms: _505  and  _508
REMARK  203  A    between atoms: _508  and  _509
REMARK  204  A    between atoms: _514  and  _516
REMARK  205  A    between atoms: _516  and  _517
REMARK  206  A    between atoms: _516  and  _519
REMARK  207  A    between atoms: _519  and  _520
REMARK  208  A    between atoms: _520  and  _521
REMARK  209  A    between atoms: _521  and  _522
REMARK  210  A    between atoms: _531  and  _533
REMARK  211  A    between atoms: _533  and  _534
REMARK  212  A    between atoms: _533  and  _536
REMARK  213  A    between atoms: _536  and  _537
REMARK  214  A    between atoms: _537  and  _538
REMARK  215  A    between atoms: _543  and  _545
REMARK  216  A    between atoms: _545  and  _546
REMARK  217  A    between atoms: _545  and  _548
REMARK  218  A    between atoms: _548  and  _549
REMARK  219  A    between atoms: _549  and  _550
REMARK  220  A    between atoms: _555  and  _557
REMARK  221  A    between atoms: _557  and  _558
REMARK  222  A    between atoms: _557  and  _560
REMARK  223  A    between atoms: _560  and  _561
REMARK  224  A    between atoms: _564  and  _566
REMARK  225  A    between atoms: _566  and  _567
REMARK  226  A    between atoms: _566  and  _569
REMARK  227  A    between atoms: _569  and  _570
REMARK  228  A    between atoms: _570  and  _571
REMARK  229  A    between atoms: _573  and  _575
REMARK  230  A    between atoms: _575  and  _576
REMARK  231  A    between atoms: _575  and  _578
REMARK  232  A    between atoms: _578  and  _579
REMARK  233  A    between atoms: _581  and  _583
REMARK  234  A    between atoms: _583  and  _584
REMARK  235  A    between atoms: _586  and  _588
REMARK  236  A    between atoms: _588  and  _589
REMARK  237  A    between atoms: _588  and  _591
REMARK  238  A    between atoms: _591  and  _592
REMARK  239  A    between atoms: _597  and  _598
REMARK  240  A    between atoms: _600  and  _602
REMARK  241  A    between atoms: _602  and  _603
REMARK  242  A    between atoms: _602  and  _605
REMARK  243  A    between atoms: _605  and  _606
REMARK  244  A    between atoms: _616  and  _618
REMARK  245  A    between atoms: _618  and  _619
REMARK  246  A    between atoms: _618  and  _621
REMARK  247  A    between atoms: _621  and  _622
REMARK  248  A    between atoms: _625  and  _627
REMARK  249  A    between atoms: _627  and  _628
REMARK  250  A    between atoms: _631  and  _633
REMARK  251  A    between atoms: _633  and  _634
REMARK  252  A    between atoms: _637  and  _639
REMARK  253  A    between atoms: _639  and  _640
REMARK  254  A    between atoms: _639  and  _642
REMARK  255  A    between atoms: _642  and  _643
REMARK  256  A    between atoms: _647  and  _648
REMARK                            x       y       z     vdW  Elec       q    Type
REMARK                         _______ _______ _______ _____ _____    ______ ____
ROOT
ATOM      1  O   HOH     1      26.198  69.854  19.745  0.00  0.00    +0.000 OA
ENDROOT
TORSDOF 0
REMARK  Name = ../refined-set-2016/4uac/4uac_pocket.pdb
REMARK  256 active torsions:
REMARK  status: ('A' for Active; 'I' for Inactive)
REMARK    1  A    between atoms: _1  and  _3
REMARK    2  A    between atoms: _3  and  _4
REMARK    3  A    between atoms: _7  and  _8
REMARK    4  A    between atoms: _13  and  _15
REMARK    5  A    between atoms: _15  and  _16
REMARK    6  A    between atoms: _19  and  _21
REMARK    7  A    between atoms: _21  and  _22
REMARK    8  A    between atoms: _21  and  _24
REMARK    9  A    between atoms: _24  and  _25
REMARK   10  A    between atoms: _25  and  _26
REMARK   11  A    between atoms: _29  and  _31
REMARK   12  A    between atoms: _31  and  _32
REMARK   13  A    between atoms: _31  and  _34
REMARK   14  A    between atoms: _34  and  _35
REMARK   15  A    between atoms: _38  and  _40
REMARK   16  A    between atoms: _40  and  _41
REMARK   17  A    between atoms: _40  and  _43
REMARK   18  A    between atoms: _43  and  _44
REMARK   19  A    between atoms: _46  and  _48
REMARK   20  A    between atoms: _48  and  _49
REMARK   21  A    between atoms: _48  and  _51
REMARK   22  A    between atoms: _51  and  _52
REMARK   23  A    between atoms: _54  and  _56
REMARK   24  A    between atoms: _56  and  _57
REMARK   25  A    between atoms: _56  and  _59
REMARK   26  A    between atoms: _59  and  _60
REMARK   27  A    between atoms: _60  and  _61
REMARK   28  A    between atoms: _64  and  _66
REMARK   29  A    between atoms: _66  and  _67
REMARK   30  A    between atoms: _66  and  _69
REMARK   31  A    between atoms: _69  and  _70
REMARK   32  A    between atoms: _72  and  _74
REMARK   33  A    between atoms: _74  and  _75
REMARK   34  A    between atoms: _74  and  _77
REMARK   35  A    between atoms: _77  and  _78
REMARK   36  A    between atoms: _81  and  _83
REMARK   37  A    between atoms: _83  and  _84
REMARK   38  A    between atoms: _87  and  _89
REMARK   39  A    between atoms: _89  and  _90
REMARK   40  A    between atoms: _89  and  _92
REMARK   41  A    between atoms: _92  and  _93
REMARK   42  A    between atoms: _93  and  _94
REMARK   43  A    between atoms: _94  and  _95
REMARK   44  A    between atoms: _95  and  _96
REMARK   45  A    between atoms: _100  and  _102
REMARK   46  A    between atoms: _102  and  _103
REMARK   47  A    between atoms: _102  and  _105
REMARK   48  A    between atoms: _105  and  _106
REMARK   49  A    between atoms: _109  and  _111
REMARK   50  A    between atoms: _111  and  _112
REMARK   51  A    between atoms: _111  and  _114
REMARK   52  A    between atoms: _117  and  _119
REMARK   53  A    between atoms: _119  and  _120
REMARK   54  A    between atoms: _119  and  _122
REMARK   55  A    between atoms: _122  and  _123
REMARK   56  A    between atoms: _126  and  _128
REMARK   57  A    between atoms: _128  and  _129
REMARK   58  A    between atoms: _128  and  _131
REMARK   59  A    between atoms: _131  and  _132
REMARK   60  A    between atoms: _132  and  _133
REMARK   61  A    between atoms: _135  and  _137
REMARK   62  A    between atoms: _137  and  _138
REMARK   63  A    between atoms: _137  and  _140
REMARK   64  A    between atoms: _140  and  _141
REMARK   65  A    between atoms: _147  and  _149
REMARK   66  A    between atoms: _149  and  _150
REMARK   67  A    between atoms: _153  and  _155
REMARK   68  A    between atoms: _155  and  _156
REMARK   69  A    between atoms: _155  and  _158
REMARK   70  A    between atoms: _158  and  _159
REMARK   71  A    between atoms: _164  and  _166
REMARK   72  A    between atoms: _166  and  _167
REMARK   73  A    between atoms: _166  and  _169
REMARK   74  A    between atoms: _169  and  _170
REMARK   75  A    between atoms: _173  and  _175
REMARK   76  A    between atoms: _175  and  _176
REMARK   77  A    between atoms: _175  and  _178
REMARK   78  A    between atoms: _178  and  _179
REMARK   79  A    between atoms: _179  and  _180
REMARK   80  A    between atoms: _185  and  _187
REMARK   81  A    between atoms: _187  and  _188
REMARK   82  A    between atoms: _187  and  _190
REMARK   83  A    between atoms: _190  and  _191
REMARK   84  A    between atoms: _195  and  _196
REMARK   85  A    between atoms: _201  and  _203
REMARK   86  A    between atoms: _203  and  _204
REMARK   87  A    between atoms: _203  and  _206
REMARK   88  A    between atoms: _206  and  _207
REMARK   89  A    between atoms: _212  and  _213
REMARK   90  A    between atoms: _215  and  _217
REMARK   91  A    between atoms: _217  and  _218
REMARK   92  A    between atoms: _217  and  _220
REMARK   93  A    between atoms: _220  and  _221
REMARK   94  A    between atoms: _224  and  _226
REMARK   95  A    between atoms: _226  and  _227
REMARK   96  A    between atoms: _226  and  _229
REMARK   97  A    between atoms: _229  and  _230
REMARK   98  A    between atoms: _232  and  _234
REMARK   99  A    between atoms: _234  and  _235
REMARK  100  A    between atoms: _234  and  _237
REMARK  101  A    between atoms: _237  and  _238
REMARK  102  A    between atoms: _243  and  _245
REMARK  103  A    between atoms: _245  and  _246
REMARK  104  A    between atoms: _245  and  _248
REMARK  105  A    between atoms: _248  and  _249
REMARK  106  A    between atoms: _252  and  _254
REMARK  107  A    between atoms: _254  and  _255
REMARK  108  A    between atoms: _254  and  _257
REMARK  109  A    between atoms: _257  and  _258
REMARK  110  A    between atoms: _269  and  _270
REMARK  111  A    between atoms: _275  and  _277
REMARK  112  A    between atoms: _277  and  _278
REMARK  113  A    between atoms: _277  and  _280
REMARK  114  A    between atoms: _280  and  _281
REMARK  115  A    between atoms: _284  and  _286
REMARK  116  A    between atoms: _286  and  _287
REMARK  117  A    between atoms: _286  and  _289
REMARK  118  A    between atoms: _289  and  _290
REMARK  119  A    between atoms: _295  and  _297
REMARK  120  A    between atoms: _297  and  _298
REMARK  121  A    between atoms: _300  and  _302
REMARK  122  A    between atoms: _302  and  _303
REMARK  123  A    between atoms: _302  and  _305
REMARK  124  A    between atoms: _305  and  _306
REMARK  125  A    between atoms: _316  and  _318
REMARK  126  A    between atoms: _318  and  _319
REMARK  127  A    between atoms: _318  and  _321
REMARK  128  A    between atoms: _321  and  _322
REMARK  129  A    between atoms: _327  and  _328
REMARK  130  A    between atoms: _330  and  _332
REMARK  131  A    between atoms: _332  and  _333
REMARK  132  A    between atoms: _332  and  _335
REMARK  133  A    between atoms: _335  and  _336
REMARK  134  A    between atoms: _339  and  _341
REMARK  135  A    between atoms: _341  and  _342
REMARK  136  A    between atoms: _341  and  _344
REMARK  137  A    between atoms: _344  and  _345
REMARK  138  A    between atoms: _350  and  _352
REMARK  139  A    between atoms: _352  and  _353
REMARK  140  A    between atoms: _352  and  _355
REMARK  141  A    between atoms: _355  and  _356
REMARK  142  A    between atoms: _361  and  _363
REMARK  143  A    between atoms: _363  and  _364
REMARK  144  A    between atoms: _363  and  _366
REMARK  145  A    between atoms: _366  and  _367
REMARK  146  A    between atoms: _367  and  _368
REMARK  147  A    between atoms: _371  and  _373
REMARK  148  A    between atoms: _373  and  _374
REMARK  149  A    between atoms: _376  and  _378
REMARK  150  A    between atoms: _378  and  _379
REMARK  151  A    between atoms: _378  and  _381
REMARK  152  A    between atoms: _381  and  _382
REMARK  153  A    between atoms: _384  and  _386
REMARK  154  A    between atoms: _386  and  _387
REMARK  155  A    between atoms: _386  and  _389
REMARK  156  A    between atoms: _389  and  _390
REMARK  157  A    between atoms: _395  and  _396
REMARK  158  A    between atoms: _398  and  _400
REMARK  159  A    between atoms: _400  and  _401
REMARK  160  A    between atoms: _400  and  _403
REMARK  161  A    between atoms: _403  and  _404
REMARK  162  A    between atoms: _409  and  _411
REMARK  163  A    between atoms: _411  and  _412
REMARK  164  A    between atoms: _414  and  _416
REMARK  165  A    between atoms: _416  and  _417
REMARK  166  A    between atoms: _416  and  _419
REMARK  167  A    between atoms: _419  and  _420
REMARK  168  A    between atoms: _425  and  _427
REMARK  169  A    between atoms: _427  and  _428
REMARK  170  A    between atoms: _427  and  _430
REMARK  171  A    between atoms: _430  and  _431
REMARK  172  A    between atoms: _441  and  _443
REMARK  173  A    between atoms: _443  and  _444
REMARK  174  A    between atoms: _443  and  _446
REMARK  175  A    between atoms: _446  and  _447
REMARK  176  A    between atoms: _452  and  _454
REMARK  177  A    between atoms: _454  and  _455
REMARK  178  A    between atoms: _454  and  _457
REMARK  179  A    between atoms: _457  and  _458
REMARK  180  A    between atoms: _458  and  _459
REMARK  181  A    between atoms: _459  and  _460
REMARK  182  A    between atoms: _460  and  _461
REMARK  183  A    between atoms: _465  and  _467
REMARK  184  A    between atoms: _467  and  _468
REMARK  185  A    between atoms: _467  and  _470
REMARK  186  A    between atoms: _470  and  _471
REMARK  187  A    between atoms: _477  and  _479
REMARK  188  A    between atoms: _479  and  _480
REMARK  189  A    between atoms: _482  and  _484
REMARK  190  A    between atoms: _484  and  _485
REMARK  191  A    between atoms: _484  and  _487
REMARK  192  A    between atoms: _487  and  _488
REMARK  193  A    between atoms: _490  and  _492
REMARK  194  A    between atoms: _492  and  _493
REMARK  195  A    between atoms: _492  and  _495
REMARK  196  A    between atoms: _495  and  _496
REMARK  197  A    between atoms: _496  and  _497
REMARK  198  A    between atoms: _497  and  _498
REMARK  199  A    between atoms: _498  and  _499
REMARK  200  A    between atoms: _503  and  _505
REMARK  201  A    between atoms: _505  and  _506
REMARK  202  A    between atoms: _505  and  _508
REMARK  203  A    between atoms: _508  and  _509
REMARK  204  A    between atoms: _514  and  _516
REMARK  205  A    between atoms: _516  and  _517
REMARK  206  A    between atoms: _516  and  _519
REMARK  207  A    between atoms: _519  and  _520
REMARK  208  A    between atoms: _520  and  _521
REMARK  209  A    between atoms: _521  and  _522
REMARK  210  A    between atoms: _531  and  _533
REMARK  211  A    between atoms: _533  and  _534
REMARK  212  A    between atoms: _533  and  _536
REMARK  213  A    between atoms: _536  and  _537
REMARK  214  A    between atoms: _537  and  _538
REMARK  215  A    between atoms: _543  and  _545
REMARK  216  A    between atoms: _545  and  _546
REMARK  217  A    between atoms: _545  and  _548
REMARK  218  A    between atoms: _548  and  _549
REMARK  219  A    between atoms: _549  and  _550
REMARK  220  A    between atoms: _555  and  _557
REMARK  221  A    between atoms: _557  and  _558
REMARK  222  A    between atoms: _557  and  _560
REMARK  223  A    between atoms: _560  and  _561
REMARK  224  A    between atoms: _564  and  _566
REMARK  225  A    between atoms: _566  and  _567
REMARK  226  A    between atoms: _566  and  _569
REMARK  227  A    between atoms: _569  and  _570
REMARK  228  A    between atoms: _570  and  _571
REMARK  229  A    between atoms: _573  and  _575
REMARK  230  A    between atoms: _575  and  _576
REMARK  231  A    between atoms: _575  and  _578
REMARK  232  A    between atoms: _578  and  _579
REMARK  233  A    between atoms: _581  and  _583
REMARK  234  A    between atoms: _583  and  _584
REMARK  235  A    between atoms: _586  and  _588
REMARK  236  A    between atoms: _588  and  _589
REMARK  237  A    between atoms: _588  and  _591
REMARK  238  A    between atoms: _591  and  _592
REMARK  239  A    between atoms: _597  and  _598
REMARK  240  A    between atoms: _600  and  _602
REMARK  241  A    between atoms: _602  and  _603
REMARK  242  A    between atoms: _602  and  _605
REMARK  243  A    between atoms: _605  and  _606
REMARK  244  A    between atoms: _616  and  _618
REMARK  245  A    between atoms: _618  and  _619
REMARK  246  A    between atoms: _618  and  _621
REMARK  247  A    between atoms: _621  and  _622
REMARK  248  A    between atoms: _625  and  _627
REMARK  249  A    between atoms: _627  and  _628
REMARK  250  A    between atoms: _631  and  _633
REMARK  251  A    between atoms: _633  and  _634
REMARK  252  A    between atoms: _637  and  _639
REMARK  253  A    between atoms: _639  and  _640
REMARK  254  A    between atoms: _639  and  _642
REMARK  255  A    between atoms: _642  and  _643
REMARK  256  A    between atoms: _647  and  _648
REMARK                            x       y       z     vdW  Elec       q    Type
REMARK                         _______ _______ _______ _____ _____    ______ ____
ROOT
ATOM      1  O   HOH     1      33.054  63.612  15.875  0.00  0.00    +0.000 OA
ENDROOT
TORSDOF 0
REMARK  Name = ../refined-set-2016/4uac/4uac_pocket.pdb
REMARK  256 active torsions:
REMARK  status: ('A' for Active; 'I' for Inactive)
REMARK    1  A    between atoms: _1  and  _3
REMARK    2  A    between atoms: _3  and  _4
REMARK    3  A    between atoms: _7  and  _8
REMARK    4  A    between atoms: _13  and  _15
REMARK    5  A    between atoms: _15  and  _16
REMARK    6  A    between atoms: _19  and  _21
REMARK    7  A    between atoms: _21  and  _22
REMARK    8  A    between atoms: _21  and  _24
REMARK    9  A    between atoms: _24  and  _25
REMARK   10  A    between atoms: _25  and  _26
REMARK   11  A    between atoms: _29  and  _31
REMARK   12  A    between atoms: _31  and  _32
REMARK   13  A    between atoms: _31  and  _34
REMARK   14  A    between atoms: _34  and  _35
REMARK   15  A    between atoms: _38  and  _40
REMARK   16  A    between atoms: _40  and  _41
REMARK   17  A    between atoms: _40  and  _43
REMARK   18  A    between atoms: _43  and  _44
REMARK   19  A    between atoms: _46  and  _48
REMARK   20  A    between atoms: _48  and  _49
REMARK   21  A    between atoms: _48  and  _51
REMARK   22  A    between atoms: _51  and  _52
REMARK   23  A    between atoms: _54  and  _56
REMARK   24  A    between atoms: _56  and  _57
REMARK   25  A    between atoms: _56  and  _59
REMARK   26  A    between atoms: _59  and  _60
REMARK   27  A    between atoms: _60  and  _61
REMARK   28  A    between atoms: _64  and  _66
REMARK   29  A    between atoms: _66  and  _67
REMARK   30  A    between atoms: _66  and  _69
REMARK   31  A    between atoms: _69  and  _70
REMARK   32  A    between atoms: _72  and  _74
REMARK   33  A    between atoms: _74  and  _75
REMARK   34  A    between atoms: _74  and  _77
REMARK   35  A    between atoms: _77  and  _78
REMARK   36  A    between atoms: _81  and  _83
REMARK   37  A    between atoms: _83  and  _84
REMARK   38  A    between atoms: _87  and  _89
REMARK   39  A    between atoms: _89  and  _90
REMARK   40  A    between atoms: _89  and  _92
REMARK   41  A    between atoms: _92  and  _93
REMARK   42  A    between atoms: _93  and  _94
REMARK   43  A    between atoms: _94  and  _95
REMARK   44  A    between atoms: _95  and  _96
REMARK   45  A    between atoms: _100  and  _102
REMARK   46  A    between atoms: _102  and  _103
REMARK   47  A    between atoms: _102  and  _105
REMARK   48  A    between atoms: _105  and  _106
REMARK   49  A    between atoms: _109  and  _111
REMARK   50  A    between atoms: _111  and  _112
REMARK   51  A    between atoms: _111  and  _114
REMARK   52  A    between atoms: _117  and  _119
REMARK   53  A    between atoms: _119  and  _120
REMARK   54  A    between atoms: _119  and  _122
REMARK   55  A    between atoms: _122  and  _123
REMARK   56  A    between atoms: _126  and  _128
REMARK   57  A    between atoms: _128  and  _129
REMARK   58  A    between atoms: _128  and  _131
REMARK   59  A    between atoms: _131  and  _132
REMARK   60  A    between atoms: _132  and  _133
REMARK   61  A    between atoms: _135  and  _137
REMARK   62  A    between atoms: _137  and  _138
REMARK   63  A    between atoms: _137  and  _140
REMARK   64  A    between atoms: _140  and  _141
REMARK   65  A    between atoms: _147  and  _149
REMARK   66  A    between atoms: _149  and  _150
REMARK   67  A    between atoms: _153  and  _155
REMARK   68  A    between atoms: _155  and  _156
REMARK   69  A    between atoms: _155  and  _158
REMARK   70  A    between atoms: _158  and  _159
REMARK   71  A    between atoms: _164  and  _166
REMARK   72  A    between atoms: _166  and  _167
REMARK   73  A    between atoms: _166  and  _169
REMARK   74  A    between atoms: _169  and  _170
REMARK   75  A    between atoms: _173  and  _175
REMARK   76  A    between atoms: _175  and  _176
REMARK   77  A    between atoms: _175  and  _178
REMARK   78  A    between atoms: _178  and  _179
REMARK   79  A    between atoms: _179  and  _180
REMARK   80  A    between atoms: _185  and  _187
REMARK   81  A    between atoms: _187  and  _188
REMARK   82  A    between atoms: _187  and  _190
REMARK   83  A    between atoms: _190  and  _191
REMARK   84  A    between atoms: _195  and  _196
REMARK   85  A    between atoms: _201  and  _203
REMARK   86  A    between atoms: _203  and  _204
REMARK   87  A    between atoms: _203  and  _206
REMARK   88  A    between atoms: _206  and  _207
REMARK   89  A    between atoms: _212  and  _213
REMARK   90  A    between atoms: _215  and  _217
REMARK   91  A    between atoms: _217  and  _218
REMARK   92  A    between atoms: _217  and  _220
REMARK   93  A    between atoms: _220  and  _221
REMARK   94  A    between atoms: _224  and  _226
REMARK   95  A    between atoms: _226  and  _227
REMARK   96  A    between atoms: _226  and  _229
REMARK   97  A    between atoms: _229  and  _230
REMARK   98  A    between atoms: _232  and  _234
REMARK   99  A    between atoms: _234  and  _235
REMARK  100  A    between atoms: _234  and  _237
REMARK  101  A    between atoms: _237  and  _238
REMARK  102  A    between atoms: _243  and  _245
REMARK  103  A    between atoms: _245  and  _246
REMARK  104  A    between atoms: _245  and  _248
REMARK  105  A    between atoms: _248  and  _249
REMARK  106  A    between atoms: _252  and  _254
REMARK  107  A    between atoms: _254  and  _255
REMARK  108  A    between atoms: _254  and  _257
REMARK  109  A    between atoms: _257  and  _258
REMARK  110  A    between atoms: _269  and  _270
REMARK  111  A    between atoms: _275  and  _277
REMARK  112  A    between atoms: _277  and  _278
REMARK  113  A    between atoms: _277  and  _280
REMARK  114  A    between atoms: _280  and  _281
REMARK  115  A    between atoms: _284  and  _286
REMARK  116  A    between atoms: _286  and  _287
REMARK  117  A    between atoms: _286  and  _289
REMARK  118  A    between atoms: _289  and  _290
REMARK  119  A    between atoms: _295  and  _297
REMARK  120  A    between atoms: _297  and  _298
REMARK  121  A    between atoms: _300  and  _302
REMARK  122  A    between atoms: _302  and  _303
REMARK  123  A    between atoms: _302  and  _305
REMARK  124  A    between atoms: _305  and  _306
REMARK  125  A    between atoms: _316  and  _318
REMARK  126  A    between atoms: _318  and  _319
REMARK  127  A    between atoms: _318  and  _321
REMARK  128  A    between atoms: _321  and  _322
REMARK  129  A    between atoms: _327  and  _328
REMARK  130  A    between atoms: _330  and  _332
REMARK  131  A    between atoms: _332  and  _333
REMARK  132  A    between atoms: _332  and  _335
REMARK  133  A    between atoms: _335  and  _336
REMARK  134  A    between atoms: _339  and  _341
REMARK  135  A    between atoms: _341  and  _342
REMARK  136  A    between atoms: _341  and  _344
REMARK  137  A    between atoms: _344  and  _345
REMARK  138  A    between atoms: _350  and  _352
REMARK  139  A    between atoms: _352  and  _353
REMARK  140  A    between atoms: _352  and  _355
REMARK  141  A    between atoms: _355  and  _356
REMARK  142  A    between atoms: _361  and  _363
REMARK  143  A    between atoms: _363  and  _364
REMARK  144  A    between atoms: _363  and  _366
REMARK  145  A    between atoms: _366  and  _367
REMARK  146  A    between atoms: _367  and  _368
REMARK  147  A    between atoms: _371  and  _373
REMARK  148  A    between atoms: _373  and  _374
REMARK  149  A    between atoms: _376  and  _378
REMARK  150  A    between atoms: _378  and  _379
REMARK  151  A    between atoms: _378  and  _381
REMARK  152  A    between atoms: _381  and  _382
REMARK  153  A    between atoms: _384  and  _386
REMARK  154  A    between atoms: _386  and  _387
REMARK  155  A    between atoms: _386  and  _389
REMARK  156  A    between atoms: _389  and  _390
REMARK  157  A    between atoms: _395  and  _396
REMARK  158  A    between atoms: _398  and  _400
REMARK  159  A    between atoms: _400  and  _401
REMARK  160  A    between atoms: _400  and  _403
REMARK  161  A    between atoms: _403  and  _404
REMARK  162  A    between atoms: _409  and  _411
REMARK  163  A    between atoms: _411  and  _412
REMARK  164  A    between atoms: _414  and  _416
REMARK  165  A    between atoms: _416  and  _417
REMARK  166  A    between atoms: _416  and  _419
REMARK  167  A    between atoms: _419  and  _420
REMARK  168  A    between atoms: _425  and  _427
REMARK  169  A    between atoms: _427  and  _428
REMARK  170  A    between atoms: _427  and  _430
REMARK  171  A    between atoms: _430  and  _431
REMARK  172  A    between atoms: _441  and  _443
REMARK  173  A    between atoms: _443  and  _444
REMARK  174  A    between atoms: _443  and  _446
REMARK  175  A    between atoms: _446  and  _447
REMARK  176  A    between atoms: _452  and  _454
REMARK  177  A    between atoms: _454  and  _455
REMARK  178  A    between atoms: _454  and  _457
REMARK  179  A    between atoms: _457  and  _458
REMARK  180  A    between atoms: _458  and  _459
REMARK  181  A    between atoms: _459  and  _460
REMARK  182  A    between atoms: _460  and  _461
REMARK  183  A    between atoms: _465  and  _467
REMARK  184  A    between atoms: _467  and  _468
REMARK  185  A    between atoms: _467  and  _470
REMARK  186  A    between atoms: _470  and  _471
REMARK  187  A    between atoms: _477  and  _479
REMARK  188  A    between atoms: _479  and  _480
REMARK  189  A    between atoms: _482  and  _484
REMARK  190  A    between atoms: _484  and  _485
REMARK  191  A    between atoms: _484  and  _487
REMARK  192  A    between atoms: _487  and  _488
REMARK  193  A    between atoms: _490  and  _492
REMARK  194  A    between atoms: _492  and  _493
REMARK  195  A    between atoms: _492  and  _495
REMARK  196  A    between atoms: _495  and  _496
REMARK  197  A    between atoms: _496  and  _497
REMARK  198  A    between atoms: _497  and  _498
REMARK  199  A    between atoms: _498  and  _499
REMARK  200  A    between atoms: _503  and  _505
REMARK  201  A    between atoms: _505  and  _506
REMARK  202  A    between atoms: _505  and  _508
REMARK  203  A    between atoms: _508  and  _509
REMARK  204  A    between atoms: _514  and  _516
REMARK  205  A    between atoms: _516  and  _517
REMARK  206  A    between atoms: _516  and  _519
REMARK  207  A    between atoms: _519  and  _520
REMARK  208  A    between atoms: _520  and  _521
REMARK  209  A    between atoms: _521  and  _522
REMARK  210  A    between atoms: _531  and  _533
REMARK  211  A    between atoms: _533  and  _534
REMARK  212  A    between atoms: _533  and  _536
REMARK  213  A    between atoms: _536  and  _537
REMARK  214  A    between atoms: _537  and  _538
REMARK  215  A    between atoms: _543  and  _545
REMARK  216  A    between atoms: _545  and  _546
REMARK  217  A    between atoms: _545  and  _548
REMARK  218  A    between atoms: _548  and  _549
REMARK  219  A    between atoms: _549  and  _550
REMARK  220  A    between atoms: _555  and  _557
REMARK  221  A    between atoms: _557  and  _558
REMARK  222  A    between atoms: _557  and  _560
REMARK  223  A    between atoms: _560  and  _561
REMARK  224  A    between atoms: _564  and  _566
REMARK  225  A    between atoms: _566  and  _567
REMARK  226  A    between atoms: _566  and  _569
REMARK  227  A    between atoms: _569  and  _570
REMARK  228  A    between atoms: _570  and  _571
REMARK  229  A    between atoms: _573  and  _575
REMARK  230  A    between atoms: _575  and  _576
REMARK  231  A    between atoms: _575  and  _578
REMARK  232  A    between atoms: _578  and  _579
REMARK  233  A    between atoms: _581  and  _583
REMARK  234  A    between atoms: _583  and  _584
REMARK  235  A    between atoms: _586  and  _588
REMARK  236  A    between atoms: _588  and  _589
REMARK  237  A    between atoms: _588  and  _591
REMARK  238  A    between atoms: _591  and  _592
REMARK  239  A    between atoms: _597  and  _598
REMARK  240  A    between atoms: _600  and  _602
REMARK  241  A    between atoms: _602  and  _603
REMARK  242  A    between atoms: _602  and  _605
REMARK  243  A    between atoms: _605  and  _606
REMARK  244  A    between atoms: _616  and  _618
REMARK  245  A    between atoms: _618  and  _619
REMARK  246  A    between atoms: _618  and  _621
REMARK  247  A    between atoms: _621  and  _622
REMARK  248  A    between atoms: _625  and  _627
REMARK  249  A    between atoms: _627  and  _628
REMARK  250  A    between atoms: _631  and  _633
REMARK  251  A    between atoms: _633  and  _634
REMARK  252  A    between atoms: _637  and  _639
REMARK  253  A    between atoms: _639  and  _640
REMARK  254  A    between atoms: _639  and  _642
REMARK  255  A    between atoms: _642  and  _643
REMARK  256  A    between atoms: _647  and  _648
REMARK                            x       y       z     vdW  Elec       q    Type
REMARK                         _______ _______ _______ _____ _____    ______ ____
ROOT
ATOM      1  O   HOH     1      28.489  56.788  22.915  0.00  0.00    +0.000 OA
ENDROOT
TORSDOF 0
REMARK  Name = ../refined-set-2016/4uac/4uac_pocket.pdb
REMARK  256 active torsions:
REMARK  status: ('A' for Active; 'I' for Inactive)
REMARK    1  A    between atoms: _1  and  _3
REMARK    2  A    between atoms: _3  and  _4
REMARK    3  A    between atoms: _7  and  _8
REMARK    4  A    between atoms: _13  and  _15
REMARK    5  A    between atoms: _15  and  _16
REMARK    6  A    between atoms: _19  and  _21
REMARK    7  A    between atoms: _21  and  _22
REMARK    8  A    between atoms: _21  and  _24
REMARK    9  A    between atoms: _24  and  _25
REMARK   10  A    between atoms: _25  and  _26
REMARK   11  A    between atoms: _29  and  _31
REMARK   12  A    between atoms: _31  and  _32
REMARK   13  A    between atoms: _31  and  _34
REMARK   14  A    between atoms: _34  and  _35
REMARK   15  A    between atoms: _38  and  _40
REMARK   16  A    between atoms: _40  and  _41
REMARK   17  A    between atoms: _40  and  _43
REMARK   18  A    between atoms: _43  and  _44
REMARK   19  A    between atoms: _46  and  _48
REMARK   20  A    between atoms: _48  and  _49
REMARK   21  A    between atoms: _48  and  _51
REMARK   22  A    between atoms: _51  and  _52
REMARK   23  A    between atoms: _54  and  _56
REMARK   24  A    between atoms: _56  and  _57
REMARK   25  A    between atoms: _56  and  _59
REMARK   26  A    between atoms: _59  and  _60
REMARK   27  A    between atoms: _60  and  _61
REMARK   28  A    between atoms: _64  and  _66
REMARK   29  A    between atoms: _66  and  _67
REMARK   30  A    between atoms: _66  and  _69
REMARK   31  A    between atoms: _69  and  _70
REMARK   32  A    between atoms: _72  and  _74
REMARK   33  A    between atoms: _74  and  _75
REMARK   34  A    between atoms: _74  and  _77
REMARK   35  A    between atoms: _77  and  _78
REMARK   36  A    between atoms: _81  and  _83
REMARK   37  A    between atoms: _83  and  _84
REMARK   38  A    between atoms: _87  and  _89
REMARK   39  A    between atoms: _89  and  _90
REMARK   40  A    between atoms: _89  and  _92
REMARK   41  A    between atoms: _92  and  _93
REMARK   42  A    between atoms: _93  and  _94
REMARK   43  A    between atoms: _94  and  _95
REMARK   44  A    between atoms: _95  and  _96
REMARK   45  A    between atoms: _100  and  _102
REMARK   46  A    between atoms: _102  and  _103
REMARK   47  A    between atoms: _102  and  _105
REMARK   48  A    between atoms: _105  and  _106
REMARK   49  A    between atoms: _109  and  _111
REMARK   50  A    between atoms: _111  and  _112
REMARK   51  A    between atoms: _111  and  _114
REMARK   52  A    between atoms: _117  and  _119
REMARK   53  A    between atoms: _119  and  _120
REMARK   54  A    between atoms: _119  and  _122
REMARK   55  A    between atoms: _122  and  _123
REMARK   56  A    between atoms: _126  and  _128
REMARK   57  A    between atoms: _128  and  _129
REMARK   58  A    between atoms: _128  and  _131
REMARK   59  A    between atoms: _131  and  _132
REMARK   60  A    between atoms: _132  and  _133
REMARK   61  A    between atoms: _135  and  _137
REMARK   62  A    between atoms: _137  and  _138
REMARK   63  A    between atoms: _137  and  _140
REMARK   64  A    between atoms: _140  and  _141
REMARK   65  A    between atoms: _147  and  _149
REMARK   66  A    between atoms: _149  and  _150
REMARK   67  A    between atoms: _153  and  _155
REMARK   68  A    between atoms: _155  and  _156
REMARK   69  A    between atoms: _155  and  _158
REMARK   70  A    between atoms: _158  and  _159
REMARK   71  A    between atoms: _164  and  _166
REMARK   72  A    between atoms: _166  and  _167
REMARK   73  A    between atoms: _166  and  _169
REMARK   74  A    between atoms: _169  and  _170
REMARK   75  A    between atoms: _173  and  _175
REMARK   76  A    between atoms: _175  and  _176
REMARK   77  A    between atoms: _175  and  _178
REMARK   78  A    between atoms: _178  and  _179
REMARK   79  A    between atoms: _179  and  _180
REMARK   80  A    between atoms: _185  and  _187
REMARK   81  A    between atoms: _187  and  _188
REMARK   82  A    between atoms: _187  and  _190
REMARK   83  A    between atoms: _190  and  _191
REMARK   84  A    between atoms: _195  and  _196
REMARK   85  A    between atoms: _201  and  _203
REMARK   86  A    between atoms: _203  and  _204
REMARK   87  A    between atoms: _203  and  _206
REMARK   88  A    between atoms: _206  and  _207
REMARK   89  A    between atoms: _212  and  _213
REMARK   90  A    between atoms: _215  and  _217
REMARK   91  A    between atoms: _217  and  _218
REMARK   92  A    between atoms: _217  and  _220
REMARK   93  A    between atoms: _220  and  _221
REMARK   94  A    between atoms: _224  and  _226
REMARK   95  A    between atoms: _226  and  _227
REMARK   96  A    between atoms: _226  and  _229
REMARK   97  A    between atoms: _229  and  _230
REMARK   98  A    between atoms: _232  and  _234
REMARK   99  A    between atoms: _234  and  _235
REMARK  100  A    between atoms: _234  and  _237
REMARK  101  A    between atoms: _237  and  _238
REMARK  102  A    between atoms: _243  and  _245
REMARK  103  A    between atoms: _245  and  _246
REMARK  104  A    between atoms: _245  and  _248
REMARK  105  A    between atoms: _248  and  _249
REMARK  106  A    between atoms: _252  and  _254
REMARK  107  A    between atoms: _254  and  _255
REMARK  108  A    between atoms: _254  and  _257
REMARK  109  A    between atoms: _257  and  _258
REMARK  110  A    between atoms: _269  and  _270
REMARK  111  A    between atoms: _275  and  _277
REMARK  112  A    between atoms: _277  and  _278
REMARK  113  A    between atoms: _277  and  _280
REMARK  114  A    between atoms: _280  and  _281
REMARK  115  A    between atoms: _284  and  _286
REMARK  116  A    between atoms: _286  and  _287
REMARK  117  A    between atoms: _286  and  _289
REMARK  118  A    between atoms: _289  and  _290
REMARK  119  A    between atoms: _295  and  _297
REMARK  120  A    between atoms: _297  and  _298
REMARK  121  A    between atoms: _300  and  _302
REMARK  122  A    between atoms: _302  and  _303
REMARK  123  A    between atoms: _302  and  _305
REMARK  124  A    between atoms: _305  and  _306
REMARK  125  A    between atoms: _316  and  _318
REMARK  126  A    between atoms: _318  and  _319
REMARK  127  A    between atoms: _318  and  _321
REMARK  128  A    between atoms: _321  and  _322
REMARK  129  A    between atoms: _327  and  _328
REMARK  130  A    between atoms: _330  and  _332
REMARK  131  A    between atoms: _332  and  _333
REMARK  132  A    between atoms: _332  and  _335
REMARK  133  A    between atoms: _335  and  _336
REMARK  134  A    between atoms: _339  and  _341
REMARK  135  A    between atoms: _341  and  _342
REMARK  136  A    between atoms: _341  and  _344
REMARK  137  A    between atoms: _344  and  _345
REMARK  138  A    between atoms: _350  and  _352
REMARK  139  A    between atoms: _352  and  _353
REMARK  140  A    between atoms: _352  and  _355
REMARK  141  A    between atoms: _355  and  _356
REMARK  142  A    between atoms: _361  and  _363
REMARK  143  A    between atoms: _363  and  _364
REMARK  144  A    between atoms: _363  and  _366
REMARK  145  A    between atoms: _366  and  _367
REMARK  146  A    between atoms: _367  and  _368
REMARK  147  A    between atoms: _371  and  _373
REMARK  148  A    between atoms: _373  and  _374
REMARK  149  A    between atoms: _376  and  _378
REMARK  150  A    between atoms: _378  and  _379
REMARK  151  A    between atoms: _378  and  _381
REMARK  152  A    between atoms: _381  and  _382
REMARK  153  A    between atoms: _384  and  _386
REMARK  154  A    between atoms: _386  and  _387
REMARK  155  A    between atoms: _386  and  _389
REMARK  156  A    between atoms: _389  and  _390
REMARK  157  A    between atoms: _395  and  _396
REMARK  158  A    between atoms: _398  and  _400
REMARK  159  A    between atoms: _400  and  _401
REMARK  160  A    between atoms: _400  and  _403
REMARK  161  A    between atoms: _403  and  _404
REMARK  162  A    between atoms: _409  and  _411
REMARK  163  A    between atoms: _411  and  _412
REMARK  164  A    between atoms: _414  and  _416
REMARK  165  A    between atoms: _416  and  _417
REMARK  166  A    between atoms: _416  and  _419
REMARK  167  A    between atoms: _419  and  _420
REMARK  168  A    between atoms: _425  and  _427
REMARK  169  A    between atoms: _427  and  _428
REMARK  170  A    between atoms: _427  and  _430
REMARK  171  A    between atoms: _430  and  _431
REMARK  172  A    between atoms: _441  and  _443
REMARK  173  A    between atoms: _443  and  _444
REMARK  174  A    between atoms: _443  and  _446
REMARK  175  A    between atoms: _446  and  _447
REMARK  176  A    between atoms: _452  and  _454
REMARK  177  A    between atoms: _454  and  _455
REMARK  178  A    between atoms: _454  and  _457
REMARK  179  A    between atoms: _457  and  _458
REMARK  180  A    between atoms: _458  and  _459
REMARK  181  A    between atoms: _459  and  _460
REMARK  182  A    between atoms: _460  and  _461
REMARK  183  A    between atoms: _465  and  _467
REMARK  184  A    between atoms: _467  and  _468
REMARK  185  A    between atoms: _467  and  _470
REMARK  186  A    between atoms: _470  and  _471
REMARK  187  A    between atoms: _477  and  _479
REMARK  188  A    between atoms: _479  and  _480
REMARK  189  A    between atoms: _482  and  _484
REMARK  190  A    between atoms: _484  and  _485
REMARK  191  A    between atoms: _484  and  _487
REMARK  192  A    between atoms: _487  and  _488
REMARK  193  A    between atoms: _490  and  _492
REMARK  194  A    between atoms: _492  and  _493
REMARK  195  A    between atoms: _492  and  _495
REMARK  196  A    between atoms: _495  and  _496
REMARK  197  A    between atoms: _496  and  _497
REMARK  198  A    between atoms: _497  and  _498
REMARK  199  A    between atoms: _498  and  _499
REMARK  200  A    between atoms: _503  and  _505
REMARK  201  A    between atoms: _505  and  _506
REMARK  202  A    between atoms: _505  and  _508
REMARK  203  A    between atoms: _508  and  _509
REMARK  204  A    between atoms: _514  and  _516
REMARK  205  A    between atoms: _516  and  _517
REMARK  206  A    between atoms: _516  and  _519
REMARK  207  A    between atoms: _519  and  _520
REMARK  208  A    between atoms: _520  and  _521
REMARK  209  A    between atoms: _521  and  _522
REMARK  210  A    between atoms: _531  and  _533
REMARK  211  A    between atoms: _533  and  _534
REMARK  212  A    between atoms: _533  and  _536
REMARK  213  A    between atoms: _536  and  _537
REMARK  214  A    between atoms: _537  and  _538
REMARK  215  A    between atoms: _543  and  _545
REMARK  216  A    between atoms: _545  and  _546
REMARK  217  A    between atoms: _545  and  _548
REMARK  218  A    between atoms: _548  and  _549
REMARK  219  A    between atoms: _549  and  _550
REMARK  220  A    between atoms: _555  and  _557
REMARK  221  A    between atoms: _557  and  _558
REMARK  222  A    between atoms: _557  and  _560
REMARK  223  A    between atoms: _560  and  _561
REMARK  224  A    between atoms: _564  and  _566
REMARK  225  A    between atoms: _566  and  _567
REMARK  226  A    between atoms: _566  and  _569
REMARK  227  A    between atoms: _569  and  _570
REMARK  228  A    between atoms: _570  and  _571
REMARK  229  A    between atoms: _573  and  _575
REMARK  230  A    between atoms: _575  and  _576
REMARK  231  A    between atoms: _575  and  _578
REMARK  232  A    between atoms: _578  and  _579
REMARK  233  A    between atoms: _581  and  _583
REMARK  234  A    between atoms: _583  and  _584
REMARK  235  A    between atoms: _586  and  _588
REMARK  236  A    between atoms: _588  and  _589
REMARK  237  A    between atoms: _588  and  _591
REMARK  238  A    between atoms: _591  and  _592
REMARK  239  A    between atoms: _597  and  _598
REMARK  240  A    between atoms: _600  and  _602
REMARK  241  A    between atoms: _602  and  _603
REMARK  242  A    between atoms: _602  and  _605
REMARK  243  A    between atoms: _605  and  _606
REMARK  244  A    between atoms: _616  and  _618
REMARK  245  A    between atoms: _618  and  _619
REMARK  246  A    between atoms: _618  and  _621
REMARK  247  A    between atoms: _621  and  _622
REMARK  248  A    between atoms: _625  and  _627
REMARK  249  A    between atoms: _627  and  _628
REMARK  250  A    between atoms: _631  and  _633
REMARK  251  A    between atoms: _633  and  _634
REMARK  252  A    between atoms: _637  and  _639
REMARK  253  A    between atoms: _639  and  _640
REMARK  254  A    between atoms: _639  and  _642
REMARK  255  A    between atoms: _642  and  _643
REMARK  256  A    between atoms: _647  and  _648
REMARK                            x       y       z     vdW  Elec       q    Type
REMARK                         _______ _______ _______ _____ _____    ______ ____
ROOT
ATOM      1  O   HOH     1      38.268  68.573  22.446  0.00  0.00    +0.000 OA
ENDROOT
TORSDOF 0
REMARK  Name = ../refined-set-2016/4uac/4uac_pocket.pdb
REMARK  256 active torsions:
REMARK  status: ('A' for Active; 'I' for Inactive)
REMARK    1  A    between atoms: _1  and  _3
REMARK    2  A    between atoms: _3  and  _4
REMARK    3  A    between atoms: _7  and  _8
REMARK    4  A    between atoms: _13  and  _15
REMARK    5  A    between atoms: _15  and  _16
REMARK    6  A    between atoms: _19  and  _21
REMARK    7  A    between atoms: _21  and  _22
REMARK    8  A    between atoms: _21  and  _24
REMARK    9  A    between atoms: _24  and  _25
REMARK   10  A    between atoms: _25  and  _26
REMARK   11  A    between atoms: _29  and  _31
REMARK   12  A    between atoms: _31  and  _32
REMARK   13  A    between atoms: _31  and  _34
REMARK   14  A    between atoms: _34  and  _35
REMARK   15  A    between atoms: _38  and  _40
REMARK   16  A    between atoms: _40  and  _41
REMARK   17  A    between atoms: _40  and  _43
REMARK   18  A    between atoms: _43  and  _44
REMARK   19  A    between atoms: _46  and  _48
REMARK   20  A    between atoms: _48  and  _49
REMARK   21  A    between atoms: _48  and  _51
REMARK   22  A    between atoms: _51  and  _52
REMARK   23  A    between atoms: _54  and  _56
REMARK   24  A    between atoms: _56  and  _57
REMARK   25  A    between atoms: _56  and  _59
REMARK   26  A    between atoms: _59  and  _60
REMARK   27  A    between atoms: _60  and  _61
REMARK   28  A    between atoms: _64  and  _66
REMARK   29  A    between atoms: _66  and  _67
REMARK   30  A    between atoms: _66  and  _69
REMARK   31  A    between atoms: _69  and  _70
REMARK   32  A    between atoms: _72  and  _74
REMARK   33  A    between atoms: _74  and  _75
REMARK   34  A    between atoms: _74  and  _77
REMARK   35  A    between atoms: _77  and  _78
REMARK   36  A    between atoms: _81  and  _83
REMARK   37  A    between atoms: _83  and  _84
REMARK   38  A    between atoms: _87  and  _89
REMARK   39  A    between atoms: _89  and  _90
REMARK   40  A    between atoms: _89  and  _92
REMARK   41  A    between atoms: _92  and  _93
REMARK   42  A    between atoms: _93  and  _94
REMARK   43  A    between atoms: _94  and  _95
REMARK   44  A    between atoms: _95  and  _96
REMARK   45  A    between atoms: _100  and  _102
REMARK   46  A    between atoms: _102  and  _103
REMARK   47  A    between atoms: _102  and  _105
REMARK   48  A    between atoms: _105  and  _106
REMARK   49  A    between atoms: _109  and  _111
REMARK   50  A    between atoms: _111  and  _112
REMARK   51  A    between atoms: _111  and  _114
REMARK   52  A    between atoms: _117  and  _119
REMARK   53  A    between atoms: _119  and  _120
REMARK   54  A    between atoms: _119  and  _122
REMARK   55  A    between atoms: _122  and  _123
REMARK   56  A    between atoms: _126  and  _128
REMARK   57  A    between atoms: _128  and  _129
REMARK   58  A    between atoms: _128  and  _131
REMARK   59  A    between atoms: _131  and  _132
REMARK   60  A    between atoms: _132  and  _133
REMARK   61  A    between atoms: _135  and  _137
REMARK   62  A    between atoms: _137  and  _138
REMARK   63  A    between atoms: _137  and  _140
REMARK   64  A    between atoms: _140  and  _141
REMARK   65  A    between atoms: _147  and  _149
REMARK   66  A    between atoms: _149  and  _150
REMARK   67  A    between atoms: _153  and  _155
REMARK   68  A    between atoms: _155  and  _156
REMARK   69  A    between atoms: _155  and  _158
REMARK   70  A    between atoms: _158  and  _159
REMARK   71  A    between atoms: _164  and  _166
REMARK   72  A    between atoms: _166  and  _167
REMARK   73  A    between atoms: _166  and  _169
REMARK   74  A    between atoms: _169  and  _170
REMARK   75  A    between atoms: _173  and  _175
REMARK   76  A    between atoms: _175  and  _176
REMARK   77  A    between atoms: _175  and  _178
REMARK   78  A    between atoms: _178  and  _179
REMARK   79  A    between atoms: _179  and  _180
REMARK   80  A    between atoms: _185  and  _187
REMARK   81  A    between atoms: _187  and  _188
REMARK   82  A    between atoms: _187  and  _190
REMARK   83  A    between atoms: _190  and  _191
REMARK   84  A    between atoms: _195  and  _196
REMARK   85  A    between atoms: _201  and  _203
REMARK   86  A    between atoms: _203  and  _204
REMARK   87  A    between atoms: _203  and  _206
REMARK   88  A    between atoms: _206  and  _207
REMARK   89  A    between atoms: _212  and  _213
REMARK   90  A    between atoms: _215  and  _217
REMARK   91  A    between atoms: _217  and  _218
REMARK   92  A    between atoms: _217  and  _220
REMARK   93  A    between atoms: _220  and  _221
REMARK   94  A    between atoms: _224  and  _226
REMARK   95  A    between atoms: _226  and  _227
REMARK   96  A    between atoms: _226  and  _229
REMARK   97  A    between atoms: _229  and  _230
REMARK   98  A    between atoms: _232  and  _234
REMARK   99  A    between atoms: _234  and  _235
REMARK  100  A    between atoms: _234  and  _237
REMARK  101  A    between atoms: _237  and  _238
REMARK  102  A    between atoms: _243  and  _245
REMARK  103  A    between atoms: _245  and  _246
REMARK  104  A    between atoms: _245  and  _248
REMARK  105  A    between atoms: _248  and  _249
REMARK  106  A    between atoms: _252  and  _254
REMARK  107  A    between atoms: _254  and  _255
REMARK  108  A    between atoms: _254  and  _257
REMARK  109  A    between atoms: _257  and  _258
REMARK  110  A    between atoms: _269  and  _270
REMARK  111  A    between atoms: _275  and  _277
REMARK  112  A    between atoms: _277  and  _278
REMARK  113  A    between atoms: _277  and  _280
REMARK  114  A    between atoms: _280  and  _281
REMARK  115  A    between atoms: _284  and  _286
REMARK  116  A    between atoms: _286  and  _287
REMARK  117  A    between atoms: _286  and  _289
REMARK  118  A    between atoms: _289  and  _290
REMARK  119  A    between atoms: _295  and  _297
REMARK  120  A    between atoms: _297  and  _298
REMARK  121  A    between atoms: _300  and  _302
REMARK  122  A    between atoms: _302  and  _303
REMARK  123  A    between atoms: _302  and  _305
REMARK  124  A    between atoms: _305  and  _306
REMARK  125  A    between atoms: _316  and  _318
REMARK  126  A    between atoms: _318  and  _319
REMARK  127  A    between atoms: _318  and  _321
REMARK  128  A    between atoms: _321  and  _322
REMARK  129  A    between atoms: _327  and  _328
REMARK  130  A    between atoms: _330  and  _332
REMARK  131  A    between atoms: _332  and  _333
REMARK  132  A    between atoms: _332  and  _335
REMARK  133  A    between atoms: _335  and  _336
REMARK  134  A    between atoms: _339  and  _341
REMARK  135  A    between atoms: _341  and  _342
REMARK  136  A    between atoms: _341  and  _344
REMARK  137  A    between atoms: _344  and  _345
REMARK  138  A    between atoms: _350  and  _352
REMARK  139  A    between atoms: _352  and  _353
REMARK  140  A    between atoms: _352  and  _355
REMARK  141  A    between atoms: _355  and  _356
REMARK  142  A    between atoms: _361  and  _363
REMARK  143  A    between atoms: _363  and  _364
REMARK  144  A    between atoms: _363  and  _366
REMARK  145  A    between atoms: _366  and  _367
REMARK  146  A    between atoms: _367  and  _368
REMARK  147  A    between atoms: _371  and  _373
REMARK  148  A    between atoms: _373  and  _374
REMARK  149  A    between atoms: _376  and  _378
REMARK  150  A    between atoms: _378  and  _379
REMARK  151  A    between atoms: _378  and  _381
REMARK  152  A    between atoms: _381  and  _382
REMARK  153  A    between atoms: _384  and  _386
REMARK  154  A    between atoms: _386  and  _387
REMARK  155  A    between atoms: _386  and  _389
REMARK  156  A    between atoms: _389  and  _390
REMARK  157  A    between atoms: _395  and  _396
REMARK  158  A    between atoms: _398  and  _400
REMARK  159  A    between atoms: _400  and  _401
REMARK  160  A    between atoms: _400  and  _403
REMARK  161  A    between atoms: _403  and  _404
REMARK  162  A    between atoms: _409  and  _411
REMARK  163  A    between atoms: _411  and  _412
REMARK  164  A    between atoms: _414  and  _416
REMARK  165  A    between atoms: _416  and  _417
REMARK  166  A    between atoms: _416  and  _419
REMARK  167  A    between atoms: _419  and  _420
REMARK  168  A    between atoms: _425  and  _427
REMARK  169  A    between atoms: _427  and  _428
REMARK  170  A    between atoms: _427  and  _430
REMARK  171  A    between atoms: _430  and  _431
REMARK  172  A    between atoms: _441  and  _443
REMARK  173  A    between atoms: _443  and  _444
REMARK  174  A    between atoms: _443  and  _446
REMARK  175  A    between atoms: _446  and  _447
REMARK  176  A    between atoms: _452  and  _454
REMARK  177  A    between atoms: _454  and  _455
REMARK  178  A    between atoms: _454  and  _457
REMARK  179  A    between atoms: _457  and  _458
REMARK  180  A    between atoms: _458  and  _459
REMARK  181  A    between atoms: _459  and  _460
REMARK  182  A    between atoms: _460  and  _461
REMARK  183  A    between atoms: _465  and  _467
REMARK  184  A    between atoms: _467  and  _468
REMARK  185  A    between atoms: _467  and  _470
REMARK  186  A    between atoms: _470  and  _471
REMARK  187  A    between atoms: _477  and  _479
REMARK  188  A    between atoms: _479  and  _480
REMARK  189  A    between atoms: _482  and  _484
REMARK  190  A    between atoms: _484  and  _485
REMARK  191  A    between atoms: _484  and  _487
REMARK  192  A    between atoms: _487  and  _488
REMARK  193  A    between atoms: _490  and  _492
REMARK  194  A    between atoms: _492  and  _493
REMARK  195  A    between atoms: _492  and  _495
REMARK  196  A    between atoms: _495  and  _496
REMARK  197  A    between atoms: _496  and  _497
REMARK  198  A    between atoms: _497  and  _498
REMARK  199  A    between atoms: _498  and  _499
REMARK  200  A    between atoms: _503  and  _505
REMARK  201  A    between atoms: _505  and  _506
REMARK  202  A    between atoms: _505  and  _508
REMARK  203  A    between atoms: _508  and  _509
REMARK  204  A    between atoms: _514  and  _516
REMARK  205  A    between atoms: _516  and  _517
REMARK  206  A    between atoms: _516  and  _519
REMARK  207  A    between atoms: _519  and  _520
REMARK  208  A    between atoms: _520  and  _521
REMARK  209  A    between atoms: _521  and  _522
REMARK  210  A    between atoms: _531  and  _533
REMARK  211  A    between atoms: _533  and  _534
REMARK  212  A    between atoms: _533  and  _536
REMARK  213  A    between atoms: _536  and  _537
REMARK  214  A    between atoms: _537  and  _538
REMARK  215  A    between atoms: _543  and  _545
REMARK  216  A    between atoms: _545  and  _546
REMARK  217  A    between atoms: _545  and  _548
REMARK  218  A    between atoms: _548  and  _549
REMARK  219  A    between atoms: _549  and  _550
REMARK  220  A    between atoms: _555  and  _557
REMARK  221  A    between atoms: _557  and  _558
REMARK  222  A    between atoms: _557  and  _560
REMARK  223  A    between atoms: _560  and  _561
REMARK  224  A    between atoms: _564  and  _566
REMARK  225  A    between atoms: _566  and  _567
REMARK  226  A    between atoms: _566  and  _569
REMARK  227  A    between atoms: _569  and  _570
REMARK  228  A    between atoms: _570  and  _571
REMARK  229  A    between atoms: _573  and  _575
REMARK  230  A    between atoms: _575  and  _576
REMARK  231  A    between atoms: _575  and  _578
REMARK  232  A    between atoms: _578  and  _579
REMARK  233  A    between atoms: _581  and  _583
REMARK  234  A    between atoms: _583  and  _584
REMARK  235  A    between atoms: _586  and  _588
REMARK  236  A    between atoms: _588  and  _589
REMARK  237  A    between atoms: _588  and  _591
REMARK  238  A    between atoms: _591  and  _592
REMARK  239  A    between atoms: _597  and  _598
REMARK  240  A    between atoms: _600  and  _602
REMARK  241  A    between atoms: _602  and  _603
REMARK  242  A    between atoms: _602  and  _605
REMARK  243  A    between atoms: _605  and  _606
REMARK  244  A    between atoms: _616  and  _618
REMARK  245  A    between atoms: _618  and  _619
REMARK  246  A    between atoms: _618  and  _621
REMARK  247  A    between atoms: _621  and  _622
REMARK  248  A    between atoms: _625  and  _627
REMARK  249  A    between atoms: _627  and  _628
REMARK  250  A    between atoms: _631  and  _633
REMARK  251  A    between atoms: _633  and  _634
REMARK  252  A    between atoms: _637  and  _639
REMARK  253  A    between atoms: _639  and  _640
REMARK  254  A    between atoms: _639  and  _642
REMARK  255  A    between atoms: _642  and  _643
REMARK  256  A    between atoms: _647  and  _648
REMARK                            x       y       z     vdW  Elec       q    Type
REMARK                         _______ _______ _______ _____ _____    ______ ____
ROOT
ATOM      1  O   HOH     1      29.379  59.370  22.637  0.00  0.00    +0.000 OA
ENDROOT
TORSDOF 0
REMARK  Name = ../refined-set-2016/4uac/4uac_pocket.pdb
REMARK  256 active torsions:
REMARK  status: ('A' for Active; 'I' for Inactive)
REMARK    1  A    between atoms: _1  and  _3
REMARK    2  A    between atoms: _3  and  _4
REMARK    3  A    between atoms: _7  and  _8
REMARK    4  A    between atoms: _13  and  _15
REMARK    5  A    between atoms: _15  and  _16
REMARK    6  A    between atoms: _19  and  _21
REMARK    7  A    between atoms: _21  and  _22
REMARK    8  A    between atoms: _21  and  _24
REMARK    9  A    between atoms: _24  and  _25
REMARK   10  A    between atoms: _25  and  _26
REMARK   11  A    between atoms: _29  and  _31
REMARK   12  A    between atoms: _31  and  _32
REMARK   13  A    between atoms: _31  and  _34
REMARK   14  A    between atoms: _34  and  _35
REMARK   15  A    between atoms: _38  and  _40
REMARK   16  A    between atoms: _40  and  _41
REMARK   17  A    between atoms: _40  and  _43
REMARK   18  A    between atoms: _43  and  _44
REMARK   19  A    between atoms: _46  and  _48
REMARK   20  A    between atoms: _48  and  _49
REMARK   21  A    between atoms: _48  and  _51
REMARK   22  A    between atoms: _51  and  _52
REMARK   23  A    between atoms: _54  and  _56
REMARK   24  A    between atoms: _56  and  _57
REMARK   25  A    between atoms: _56  and  _59
REMARK   26  A    between atoms: _59  and  _60
REMARK   27  A    between atoms: _60  and  _61
REMARK   28  A    between atoms: _64  and  _66
REMARK   29  A    between atoms: _66  and  _67
REMARK   30  A    between atoms: _66  and  _69
REMARK   31  A    between atoms: _69  and  _70
REMARK   32  A    between atoms: _72  and  _74
REMARK   33  A    between atoms: _74  and  _75
REMARK   34  A    between atoms: _74  and  _77
REMARK   35  A    between atoms: _77  and  _78
REMARK   36  A    between atoms: _81  and  _83
REMARK   37  A    between atoms: _83  and  _84
REMARK   38  A    between atoms: _87  and  _89
REMARK   39  A    between atoms: _89  and  _90
REMARK   40  A    between atoms: _89  and  _92
REMARK   41  A    between atoms: _92  and  _93
REMARK   42  A    between atoms: _93  and  _94
REMARK   43  A    between atoms: _94  and  _95
REMARK   44  A    between atoms: _95  and  _96
REMARK   45  A    between atoms: _100  and  _102
REMARK   46  A    between atoms: _102  and  _103
REMARK   47  A    between atoms: _102  and  _105
REMARK   48  A    between atoms: _105  and  _106
REMARK   49  A    between atoms: _109  and  _111
REMARK   50  A    between atoms: _111  and  _112
REMARK   51  A    between atoms: _111  and  _114
REMARK   52  A    between atoms: _117  and  _119
REMARK   53  A    between atoms: _119  and  _120
REMARK   54  A    between atoms: _119  and  _122
REMARK   55  A    between atoms: _122  and  _123
REMARK   56  A    between atoms: _126  and  _128
REMARK   57  A    between atoms: _128  and  _129
REMARK   58  A    between atoms: _128  and  _131
REMARK   59  A    between atoms: _131  and  _132
REMARK   60  A    between atoms: _132  and  _133
REMARK   61  A    between atoms: _135  and  _137
REMARK   62  A    between atoms: _137  and  _138
REMARK   63  A    between atoms: _137  and  _140
REMARK   64  A    between atoms: _140  and  _141
REMARK   65  A    between atoms: _147  and  _149
REMARK   66  A    between atoms: _149  and  _150
REMARK   67  A    between atoms: _153  and  _155
REMARK   68  A    between atoms: _155  and  _156
REMARK   69  A    between atoms: _155  and  _158
REMARK   70  A    between atoms: _158  and  _159
REMARK   71  A    between atoms: _164  and  _166
REMARK   72  A    between atoms: _166  and  _167
REMARK   73  A    between atoms: _166  and  _169
REMARK   74  A    between atoms: _169  and  _170
REMARK   75  A    between atoms: _173  and  _175
REMARK   76  A    between atoms: _175  and  _176
REMARK   77  A    between atoms: _175  and  _178
REMARK   78  A    between atoms: _178  and  _179
REMARK   79  A    between atoms: _179  and  _180
REMARK   80  A    between atoms: _185  and  _187
REMARK   81  A    between atoms: _187  and  _188
REMARK   82  A    between atoms: _187  and  _190
REMARK   83  A    between atoms: _190  and  _191
REMARK   84  A    between atoms: _195  and  _196
REMARK   85  A    between atoms: _201  and  _203
REMARK   86  A    between atoms: _203  and  _204
REMARK   87  A    between atoms: _203  and  _206
REMARK   88  A    between atoms: _206  and  _207
REMARK   89  A    between atoms: _212  and  _213
REMARK   90  A    between atoms: _215  and  _217
REMARK   91  A    between atoms: _217  and  _218
REMARK   92  A    between atoms: _217  and  _220
REMARK   93  A    between atoms: _220  and  _221
REMARK   94  A    between atoms: _224  and  _226
REMARK   95  A    between atoms: _226  and  _227
REMARK   96  A    between atoms: _226  and  _229
REMARK   97  A    between atoms: _229  and  _230
REMARK   98  A    between atoms: _232  and  _234
REMARK   99  A    between atoms: _234  and  _235
REMARK  100  A    between atoms: _234  and  _237
REMARK  101  A    between atoms: _237  and  _238
REMARK  102  A    between atoms: _243  and  _245
REMARK  103  A    between atoms: _245  and  _246
REMARK  104  A    between atoms: _245  and  _248
REMARK  105  A    between atoms: _248  and  _249
REMARK  106  A    between atoms: _252  and  _254
REMARK  107  A    between atoms: _254  and  _255
REMARK  108  A    between atoms: _254  and  _257
REMARK  109  A    between atoms: _257  and  _258
REMARK  110  A    between atoms: _269  and  _270
REMARK  111  A    between atoms: _275  and  _277
REMARK  112  A    between atoms: _277  and  _278
REMARK  113  A    between atoms: _277  and  _280
REMARK  114  A    between atoms: _280  and  _281
REMARK  115  A    between atoms: _284  and  _286
REMARK  116  A    between atoms: _286  and  _287
REMARK  117  A    between atoms: _286  and  _289
REMARK  118  A    between atoms: _289  and  _290
REMARK  119  A    between atoms: _295  and  _297
REMARK  120  A    between atoms: _297  and  _298
REMARK  121  A    between atoms: _300  and  _302
REMARK  122  A    between atoms: _302  and  _303
REMARK  123  A    between atoms: _302  and  _305
REMARK  124  A    between atoms: _305  and  _306
REMARK  125  A    between atoms: _316  and  _318
REMARK  126  A    between atoms: _318  and  _319
REMARK  127  A    between atoms: _318  and  _321
REMARK  128  A    between atoms: _321  and  _322
REMARK  129  A    between atoms: _327  and  _328
REMARK  130  A    between atoms: _330  and  _332
REMARK  131  A    between atoms: _332  and  _333
REMARK  132  A    between atoms: _332  and  _335
REMARK  133  A    between atoms: _335  and  _336
REMARK  134  A    between atoms: _339  and  _341
REMARK  135  A    between atoms: _341  and  _342
REMARK  136  A    between atoms: _341  and  _344
REMARK  137  A    between atoms: _344  and  _345
REMARK  138  A    between atoms: _350  and  _352
REMARK  139  A    between atoms: _352  and  _353
REMARK  140  A    between atoms: _352  and  _355
REMARK  141  A    between atoms: _355  and  _356
REMARK  142  A    between atoms: _361  and  _363
REMARK  143  A    between atoms: _363  and  _364
REMARK  144  A    between atoms: _363  and  _366
REMARK  145  A    between atoms: _366  and  _367
REMARK  146  A    between atoms: _367  and  _368
REMARK  147  A    between atoms: _371  and  _373
REMARK  148  A    between atoms: _373  and  _374
REMARK  149  A    between atoms: _376  and  _378
REMARK  150  A    between atoms: _378  and  _379
REMARK  151  A    between atoms: _378  and  _381
REMARK  152  A    between atoms: _381  and  _382
REMARK  153  A    between atoms: _384  and  _386
REMARK  154  A    between atoms: _386  and  _387
REMARK  155  A    between atoms: _386  and  _389
REMARK  156  A    between atoms: _389  and  _390
REMARK  157  A    between atoms: _395  and  _396
REMARK  158  A    between atoms: _398  and  _400
REMARK  159  A    between atoms: _400  and  _401
REMARK  160  A    between atoms: _400  and  _403
REMARK  161  A    between atoms: _403  and  _404
REMARK  162  A    between atoms: _409  and  _411
REMARK  163  A    between atoms: _411  and  _412
REMARK  164  A    between atoms: _414  and  _416
REMARK  165  A    between atoms: _416  and  _417
REMARK  166  A    between atoms: _416  and  _419
REMARK  167  A    between atoms: _419  and  _420
REMARK  168  A    between atoms: _425  and  _427
REMARK  169  A    between atoms: _427  and  _428
REMARK  170  A    between atoms: _427  and  _430
REMARK  171  A    between atoms: _430  and  _431
REMARK  172  A    between atoms: _441  and  _443
REMARK  173  A    between atoms: _443  and  _444
REMARK  174  A    between atoms: _443  and  _446
REMARK  175  A    between atoms: _446  and  _447
REMARK  176  A    between atoms: _452  and  _454
REMARK  177  A    between atoms: _454  and  _455
REMARK  178  A    between atoms: _454  and  _457
REMARK  179  A    between atoms: _457  and  _458
REMARK  180  A    between atoms: _458  and  _459
REMARK  181  A    between atoms: _459  and  _460
REMARK  182  A    between atoms: _460  and  _461
REMARK  183  A    between atoms: _465  and  _467
REMARK  184  A    between atoms: _467  and  _468
REMARK  185  A    between atoms: _467  and  _470
REMARK  186  A    between atoms: _470  and  _471
REMARK  187  A    between atoms: _477  and  _479
REMARK  188  A    between atoms: _479  and  _480
REMARK  189  A    between atoms: _482  and  _484
REMARK  190  A    between atoms: _484  and  _485
REMARK  191  A    between atoms: _484  and  _487
REMARK  192  A    between atoms: _487  and  _488
REMARK  193  A    between atoms: _490  and  _492
REMARK  194  A    between atoms: _492  and  _493
REMARK  195  A    between atoms: _492  and  _495
REMARK  196  A    between atoms: _495  and  _496
REMARK  197  A    between atoms: _496  and  _497
REMARK  198  A    between atoms: _497  and  _498
REMARK  199  A    between atoms: _498  and  _499
REMARK  200  A    between atoms: _503  and  _505
REMARK  201  A    between atoms: _505  and  _506
REMARK  202  A    between atoms: _505  and  _508
REMARK  203  A    between atoms: _508  and  _509
REMARK  204  A    between atoms: _514  and  _516
REMARK  205  A    between atoms: _516  and  _517
REMARK  206  A    between atoms: _516  and  _519
REMARK  207  A    between atoms: _519  and  _520
REMARK  208  A    between atoms: _520  and  _521
REMARK  209  A    between atoms: _521  and  _522
REMARK  210  A    between atoms: _531  and  _533
REMARK  211  A    between atoms: _533  and  _534
REMARK  212  A    between atoms: _533  and  _536
REMARK  213  A    between atoms: _536  and  _537
REMARK  214  A    between atoms: _537  and  _538
REMARK  215  A    between atoms: _543  and  _545
REMARK  216  A    between atoms: _545  and  _546
REMARK  217  A    between atoms: _545  and  _548
REMARK  218  A    between atoms: _548  and  _549
REMARK  219  A    between atoms: _549  and  _550
REMARK  220  A    between atoms: _555  and  _557
REMARK  221  A    between atoms: _557  and  _558
REMARK  222  A    between atoms: _557  and  _560
REMARK  223  A    between atoms: _560  and  _561
REMARK  224  A    between atoms: _564  and  _566
REMARK  225  A    between atoms: _566  and  _567
REMARK  226  A    between atoms: _566  and  _569
REMARK  227  A    between atoms: _569  and  _570
REMARK  228  A    between atoms: _570  and  _571
REMARK  229  A    between atoms: _573  and  _575
REMARK  230  A    between atoms: _575  and  _576
REMARK  231  A    between atoms: _575  and  _578
REMARK  232  A    between atoms: _578  and  _579
REMARK  233  A    between atoms: _581  and  _583
REMARK  234  A    between atoms: _583  and  _584
REMARK  235  A    between atoms: _586  and  _588
REMARK  236  A    between atoms: _588  and  _589
REMARK  237  A    between atoms: _588  and  _591
REMARK  238  A    between atoms: _591  and  _592
REMARK  239  A    between atoms: _597  and  _598
REMARK  240  A    between atoms: _600  and  _602
REMARK  241  A    between atoms: _602  and  _603
REMARK  242  A    between atoms: _602  and  _605
REMARK  243  A    between atoms: _605  and  _606
REMARK  244  A    between atoms: _616  and  _618
REMARK  245  A    between atoms: _618  and  _619
REMARK  246  A    between atoms: _618  and  _621
REMARK  247  A    between atoms: _621  and  _622
REMARK  248  A    between atoms: _625  and  _627
REMARK  249  A    between atoms: _627  and  _628
REMARK  250  A    between atoms: _631  and  _633
REMARK  251  A    between atoms: _633  and  _634
REMARK  252  A    between atoms: _637  and  _639
REMARK  253  A    between atoms: _639  and  _640
REMARK  254  A    between atoms: _639  and  _642
REMARK  255  A    between atoms: _642  and  _643
REMARK  256  A    between atoms: _647  and  _648
REMARK                            x       y       z     vdW  Elec       q    Type
REMARK                         _______ _______ _______ _____ _____    ______ ____
ROOT
ATOM      1  O   HOH     1      38.233  64.858  23.887  0.00  0.00    +0.000 OA
ENDROOT
TORSDOF 0
REMARK  Name = ../refined-set-2016/4uac/4uac_pocket.pdb
REMARK  256 active torsions:
REMARK  status: ('A' for Active; 'I' for Inactive)
REMARK    1  A    between atoms: _1  and  _3
REMARK    2  A    between atoms: _3  and  _4
REMARK    3  A    between atoms: _7  and  _8
REMARK    4  A    between atoms: _13  and  _15
REMARK    5  A    between atoms: _15  and  _16
REMARK    6  A    between atoms: _19  and  _21
REMARK    7  A    between atoms: _21  and  _22
REMARK    8  A    between atoms: _21  and  _24
REMARK    9  A    between atoms: _24  and  _25
REMARK   10  A    between atoms: _25  and  _26
REMARK   11  A    between atoms: _29  and  _31
REMARK   12  A    between atoms: _31  and  _32
REMARK   13  A    between atoms: _31  and  _34
REMARK   14  A    between atoms: _34  and  _35
REMARK   15  A    between atoms: _38  and  _40
REMARK   16  A    between atoms: _40  and  _41
REMARK   17  A    between atoms: _40  and  _43
REMARK   18  A    between atoms: _43  and  _44
REMARK   19  A    between atoms: _46  and  _48
REMARK   20  A    between atoms: _48  and  _49
REMARK   21  A    between atoms: _48  and  _51
REMARK   22  A    between atoms: _51  and  _52
REMARK   23  A    between atoms: _54  and  _56
REMARK   24  A    between atoms: _56  and  _57
REMARK   25  A    between atoms: _56  and  _59
REMARK   26  A    between atoms: _59  and  _60
REMARK   27  A    between atoms: _60  and  _61
REMARK   28  A    between atoms: _64  and  _66
REMARK   29  A    between atoms: _66  and  _67
REMARK   30  A    between atoms: _66  and  _69
REMARK   31  A    between atoms: _69  and  _70
REMARK   32  A    between atoms: _72  and  _74
REMARK   33  A    between atoms: _74  and  _75
REMARK   34  A    between atoms: _74  and  _77
REMARK   35  A    between atoms: _77  and  _78
REMARK   36  A    between atoms: _81  and  _83
REMARK   37  A    between atoms: _83  and  _84
REMARK   38  A    between atoms: _87  and  _89
REMARK   39  A    between atoms: _89  and  _90
REMARK   40  A    between atoms: _89  and  _92
REMARK   41  A    between atoms: _92  and  _93
REMARK   42  A    between atoms: _93  and  _94
REMARK   43  A    between atoms: _94  and  _95
REMARK   44  A    between atoms: _95  and  _96
REMARK   45  A    between atoms: _100  and  _102
REMARK   46  A    between atoms: _102  and  _103
REMARK   47  A    between atoms: _102  and  _105
REMARK   48  A    between atoms: _105  and  _106
REMARK   49  A    between atoms: _109  and  _111
REMARK   50  A    between atoms: _111  and  _112
REMARK   51  A    between atoms: _111  and  _114
REMARK   52  A    between atoms: _117  and  _119
REMARK   53  A    between atoms: _119  and  _120
REMARK   54  A    between atoms: _119  and  _122
REMARK   55  A    between atoms: _122  and  _123
REMARK   56  A    between atoms: _126  and  _128
REMARK   57  A    between atoms: _128  and  _129
REMARK   58  A    between atoms: _128  and  _131
REMARK   59  A    between atoms: _131  and  _132
REMARK   60  A    between atoms: _132  and  _133
REMARK   61  A    between atoms: _135  and  _137
REMARK   62  A    between atoms: _137  and  _138
REMARK   63  A    between atoms: _137  and  _140
REMARK   64  A    between atoms: _140  and  _141
REMARK   65  A    between atoms: _147  and  _149
REMARK   66  A    between atoms: _149  and  _150
REMARK   67  A    between atoms: _153  and  _155
REMARK   68  A    between atoms: _155  and  _156
REMARK   69  A    between atoms: _155  and  _158
REMARK   70  A    between atoms: _158  and  _159
REMARK   71  A    between atoms: _164  and  _166
REMARK   72  A    between atoms: _166  and  _167
REMARK   73  A    between atoms: _166  and  _169
REMARK   74  A    between atoms: _169  and  _170
REMARK   75  A    between atoms: _173  and  _175
REMARK   76  A    between atoms: _175  and  _176
REMARK   77  A    between atoms: _175  and  _178
REMARK   78  A    between atoms: _178  and  _179
REMARK   79  A    between atoms: _179  and  _180
REMARK   80  A    between atoms: _185  and  _187
REMARK   81  A    between atoms: _187  and  _188
REMARK   82  A    between atoms: _187  and  _190
REMARK   83  A    between atoms: _190  and  _191
REMARK   84  A    between atoms: _195  and  _196
REMARK   85  A    between atoms: _201  and  _203
REMARK   86  A    between atoms: _203  and  _204
REMARK   87  A    between atoms: _203  and  _206
REMARK   88  A    between atoms: _206  and  _207
REMARK   89  A    between atoms: _212  and  _213
REMARK   90  A    between atoms: _215  and  _217
REMARK   91  A    between atoms: _217  and  _218
REMARK   92  A    between atoms: _217  and  _220
REMARK   93  A    between atoms: _220  and  _221
REMARK   94  A    between atoms: _224  and  _226
REMARK   95  A    between atoms: _226  and  _227
REMARK   96  A    between atoms: _226  and  _229
REMARK   97  A    between atoms: _229  and  _230
REMARK   98  A    between atoms: _232  and  _234
REMARK   99  A    between atoms: _234  and  _235
REMARK  100  A    between atoms: _234  and  _237
REMARK  101  A    between atoms: _237  and  _238
REMARK  102  A    between atoms: _243  and  _245
REMARK  103  A    between atoms: _245  and  _246
REMARK  104  A    between atoms: _245  and  _248
REMARK  105  A    between atoms: _248  and  _249
REMARK  106  A    between atoms: _252  and  _254
REMARK  107  A    between atoms: _254  and  _255
REMARK  108  A    between atoms: _254  and  _257
REMARK  109  A    between atoms: _257  and  _258
REMARK  110  A    between atoms: _269  and  _270
REMARK  111  A    between atoms: _275  and  _277
REMARK  112  A    between atoms: _277  and  _278
REMARK  113  A    between atoms: _277  and  _280
REMARK  114  A    between atoms: _280  and  _281
REMARK  115  A    between atoms: _284  and  _286
REMARK  116  A    between atoms: _286  and  _287
REMARK  117  A    between atoms: _286  and  _289
REMARK  118  A    between atoms: _289  and  _290
REMARK  119  A    between atoms: _295  and  _297
REMARK  120  A    between atoms: _297  and  _298
REMARK  121  A    between atoms: _300  and  _302
REMARK  122  A    between atoms: _302  and  _303
REMARK  123  A    between atoms: _302  and  _305
REMARK  124  A    between atoms: _305  and  _306
REMARK  125  A    between atoms: _316  and  _318
REMARK  126  A    between atoms: _318  and  _319
REMARK  127  A    between atoms: _318  and  _321
REMARK  128  A    between atoms: _321  and  _322
REMARK  129  A    between atoms: _327  and  _328
REMARK  130  A    between atoms: _330  and  _332
REMARK  131  A    between atoms: _332  and  _333
REMARK  132  A    between atoms: _332  and  _335
REMARK  133  A    between atoms: _335  and  _336
REMARK  134  A    between atoms: _339  and  _341
REMARK  135  A    between atoms: _341  and  _342
REMARK  136  A    between atoms: _341  and  _344
REMARK  137  A    between atoms: _344  and  _345
REMARK  138  A    between atoms: _350  and  _352
REMARK  139  A    between atoms: _352  and  _353
REMARK  140  A    between atoms: _352  and  _355
REMARK  141  A    between atoms: _355  and  _356
REMARK  142  A    between atoms: _361  and  _363
REMARK  143  A    between atoms: _363  and  _364
REMARK  144  A    between atoms: _363  and  _366
REMARK  145  A    between atoms: _366  and  _367
REMARK  146  A    between atoms: _367  and  _368
REMARK  147  A    between atoms: _371  and  _373
REMARK  148  A    between atoms: _373  and  _374
REMARK  149  A    between atoms: _376  and  _378
REMARK  150  A    between atoms: _378  and  _379
REMARK  151  A    between atoms: _378  and  _381
REMARK  152  A    between atoms: _381  and  _382
REMARK  153  A    between atoms: _384  and  _386
REMARK  154  A    between atoms: _386  and  _387
REMARK  155  A    between atoms: _386  and  _389
REMARK  156  A    between atoms: _389  and  _390
REMARK  157  A    between atoms: _395  and  _396
REMARK  158  A    between atoms: _398  and  _400
REMARK  159  A    between atoms: _400  and  _401
REMARK  160  A    between atoms: _400  and  _403
REMARK  161  A    between atoms: _403  and  _404
REMARK  162  A    between atoms: _409  and  _411
REMARK  163  A    between atoms: _411  and  _412
REMARK  164  A    between atoms: _414  and  _416
REMARK  165  A    between atoms: _416  and  _417
REMARK  166  A    between atoms: _416  and  _419
REMARK  167  A    between atoms: _419  and  _420
REMARK  168  A    between atoms: _425  and  _427
REMARK  169  A    between atoms: _427  and  _428
REMARK  170  A    between atoms: _427  and  _430
REMARK  171  A    between atoms: _430  and  _431
REMARK  172  A    between atoms: _441  and  _443
REMARK  173  A    between atoms: _443  and  _444
REMARK  174  A    between atoms: _443  and  _446
REMARK  175  A    between atoms: _446  and  _447
REMARK  176  A    between atoms: _452  and  _454
REMARK  177  A    between atoms: _454  and  _455
REMARK  178  A    between atoms: _454  and  _457
REMARK  179  A    between atoms: _457  and  _458
REMARK  180  A    between atoms: _458  and  _459
REMARK  181  A    between atoms: _459  and  _460
REMARK  182  A    between atoms: _460  and  _461
REMARK  183  A    between atoms: _465  and  _467
REMARK  184  A    between atoms: _467  and  _468
REMARK  185  A    between atoms: _467  and  _470
REMARK  186  A    between atoms: _470  and  _471
REMARK  187  A    between atoms: _477  and  _479
REMARK  188  A    between atoms: _479  and  _480
REMARK  189  A    between atoms: _482  and  _484
REMARK  190  A    between atoms: _484  and  _485
REMARK  191  A    between atoms: _484  and  _487
REMARK  192  A    between atoms: _487  and  _488
REMARK  193  A    between atoms: _490  and  _492
REMARK  194  A    between atoms: _492  and  _493
REMARK  195  A    between atoms: _492  and  _495
REMARK  196  A    between atoms: _495  and  _496
REMARK  197  A    between atoms: _496  and  _497
REMARK  198  A    between atoms: _497  and  _498
REMARK  199  A    between atoms: _498  and  _499
REMARK  200  A    between atoms: _503  and  _505
REMARK  201  A    between atoms: _505  and  _506
REMARK  202  A    between atoms: _505  and  _508
REMARK  203  A    between atoms: _508  and  _509
REMARK  204  A    between atoms: _514  and  _516
REMARK  205  A    between atoms: _516  and  _517
REMARK  206  A    between atoms: _516  and  _519
REMARK  207  A    between atoms: _519  and  _520
REMARK  208  A    between atoms: _520  and  _521
REMARK  209  A    between atoms: _521  and  _522
REMARK  210  A    between atoms: _531  and  _533
REMARK  211  A    between atoms: _533  and  _534
REMARK  212  A    between atoms: _533  and  _536
REMARK  213  A    between atoms: _536  and  _537
REMARK  214  A    between atoms: _537  and  _538
REMARK  215  A    between atoms: _543  and  _545
REMARK  216  A    between atoms: _545  and  _546
REMARK  217  A    between atoms: _545  and  _548
REMARK  218  A    between atoms: _548  and  _549
REMARK  219  A    between atoms: _549  and  _550
REMARK  220  A    between atoms: _555  and  _557
REMARK  221  A    between atoms: _557  and  _558
REMARK  222  A    between atoms: _557  and  _560
REMARK  223  A    between atoms: _560  and  _561
REMARK  224  A    between atoms: _564  and  _566
REMARK  225  A    between atoms: _566  and  _567
REMARK  226  A    between atoms: _566  and  _569
REMARK  227  A    between atoms: _569  and  _570
REMARK  228  A    between atoms: _570  and  _571
REMARK  229  A    between atoms: _573  and  _575
REMARK  230  A    between atoms: _575  and  _576
REMARK  231  A    between atoms: _575  and  _578
REMARK  232  A    between atoms: _578  and  _579
REMARK  233  A    between atoms: _581  and  _583
REMARK  234  A    between atoms: _583  and  _584
REMARK  235  A    between atoms: _586  and  _588
REMARK  236  A    between atoms: _588  and  _589
REMARK  237  A    between atoms: _588  and  _591
REMARK  238  A    between atoms: _591  and  _592
REMARK  239  A    between atoms: _597  and  _598
REMARK  240  A    between atoms: _600  and  _602
REMARK  241  A    between atoms: _602  and  _603
REMARK  242  A    between atoms: _602  and  _605
REMARK  243  A    between atoms: _605  and  _606
REMARK  244  A    between atoms: _616  and  _618
REMARK  245  A    between atoms: _618  and  _619
REMARK  246  A    between atoms: _618  and  _621
REMARK  247  A    between atoms: _621  and  _622
REMARK  248  A    between atoms: _625  and  _627
REMARK  249  A    between atoms: _627  and  _628
REMARK  250  A    between atoms: _631  and  _633
REMARK  251  A    between atoms: _633  and  _634
REMARK  252  A    between atoms: _637  and  _639
REMARK  253  A    between atoms: _639  and  _640
REMARK  254  A    between atoms: _639  and  _642
REMARK  255  A    between atoms: _642  and  _643
REMARK  256  A    between atoms: _647  and  _648
REMARK                            x       y       z     vdW  Elec       q    Type
REMARK                         _______ _______ _______ _____ _____    ______ ____
ROOT
ATOM      1  O   HOH     1      36.571  63.468  27.854  0.00  0.00    +0.000 OA
ENDROOT
TORSDOF 0
REMARK  Name = ../refined-set-2016/4uac/4uac_pocket.pdb
REMARK  256 active torsions:
REMARK  status: ('A' for Active; 'I' for Inactive)
REMARK    1  A    between atoms: _1  and  _3
REMARK    2  A    between atoms: _3  and  _4
REMARK    3  A    between atoms: _7  and  _8
REMARK    4  A    between atoms: _13  and  _15
REMARK    5  A    between atoms: _15  and  _16
REMARK    6  A    between atoms: _19  and  _21
REMARK    7  A    between atoms: _21  and  _22
REMARK    8  A    between atoms: _21  and  _24
REMARK    9  A    between atoms: _24  and  _25
REMARK   10  A    between atoms: _25  and  _26
REMARK   11  A    between atoms: _29  and  _31
REMARK   12  A    between atoms: _31  and  _32
REMARK   13  A    between atoms: _31  and  _34
REMARK   14  A    between atoms: _34  and  _35
REMARK   15  A    between atoms: _38  and  _40
REMARK   16  A    between atoms: _40  and  _41
REMARK   17  A    between atoms: _40  and  _43
REMARK   18  A    between atoms: _43  and  _44
REMARK   19  A    between atoms: _46  and  _48
REMARK   20  A    between atoms: _48  and  _49
REMARK   21  A    between atoms: _48  and  _51
REMARK   22  A    between atoms: _51  and  _52
REMARK   23  A    between atoms: _54  and  _56
REMARK   24  A    between atoms: _56  and  _57
REMARK   25  A    between atoms: _56  and  _59
REMARK   26  A    between atoms: _59  and  _60
REMARK   27  A    between atoms: _60  and  _61
REMARK   28  A    between atoms: _64  and  _66
REMARK   29  A    between atoms: _66  and  _67
REMARK   30  A    between atoms: _66  and  _69
REMARK   31  A    between atoms: _69  and  _70
REMARK   32  A    between atoms: _72  and  _74
REMARK   33  A    between atoms: _74  and  _75
REMARK   34  A    between atoms: _74  and  _77
REMARK   35  A    between atoms: _77  and  _78
REMARK   36  A    between atoms: _81  and  _83
REMARK   37  A    between atoms: _83  and  _84
REMARK   38  A    between atoms: _87  and  _89
REMARK   39  A    between atoms: _89  and  _90
REMARK   40  A    between atoms: _89  and  _92
REMARK   41  A    between atoms: _92  and  _93
REMARK   42  A    between atoms: _93  and  _94
REMARK   43  A    between atoms: _94  and  _95
REMARK   44  A    between atoms: _95  and  _96
REMARK   45  A    between atoms: _100  and  _102
REMARK   46  A    between atoms: _102  and  _103
REMARK   47  A    between atoms: _102  and  _105
REMARK   48  A    between atoms: _105  and  _106
REMARK   49  A    between atoms: _109  and  _111
REMARK   50  A    between atoms: _111  and  _112
REMARK   51  A    between atoms: _111  and  _114
REMARK   52  A    between atoms: _117  and  _119
REMARK   53  A    between atoms: _119  and  _120
REMARK   54  A    between atoms: _119  and  _122
REMARK   55  A    between atoms: _122  and  _123
REMARK   56  A    between atoms: _126  and  _128
REMARK   57  A    between atoms: _128  and  _129
REMARK   58  A    between atoms: _128  and  _131
REMARK   59  A    between atoms: _131  and  _132
REMARK   60  A    between atoms: _132  and  _133
REMARK   61  A    between atoms: _135  and  _137
REMARK   62  A    between atoms: _137  and  _138
REMARK   63  A    between atoms: _137  and  _140
REMARK   64  A    between atoms: _140  and  _141
REMARK   65  A    between atoms: _147  and  _149
REMARK   66  A    between atoms: _149  and  _150
REMARK   67  A    between atoms: _153  and  _155
REMARK   68  A    between atoms: _155  and  _156
REMARK   69  A    between atoms: _155  and  _158
REMARK   70  A    between atoms: _158  and  _159
REMARK   71  A    between atoms: _164  and  _166
REMARK   72  A    between atoms: _166  and  _167
REMARK   73  A    between atoms: _166  and  _169
REMARK   74  A    between atoms: _169  and  _170
REMARK   75  A    between atoms: _173  and  _175
REMARK   76  A    between atoms: _175  and  _176
REMARK   77  A    between atoms: _175  and  _178
REMARK   78  A    between atoms: _178  and  _179
REMARK   79  A    between atoms: _179  and  _180
REMARK   80  A    between atoms: _185  and  _187
REMARK   81  A    between atoms: _187  and  _188
REMARK   82  A    between atoms: _187  and  _190
REMARK   83  A    between atoms: _190  and  _191
REMARK   84  A    between atoms: _195  and  _196
REMARK   85  A    between atoms: _201  and  _203
REMARK   86  A    between atoms: _203  and  _204
REMARK   87  A    between atoms: _203  and  _206
REMARK   88  A    between atoms: _206  and  _207
REMARK   89  A    between atoms: _212  and  _213
REMARK   90  A    between atoms: _215  and  _217
REMARK   91  A    between atoms: _217  and  _218
REMARK   92  A    between atoms: _217  and  _220
REMARK   93  A    between atoms: _220  and  _221
REMARK   94  A    between atoms: _224  and  _226
REMARK   95  A    between atoms: _226  and  _227
REMARK   96  A    between atoms: _226  and  _229
REMARK   97  A    between atoms: _229  and  _230
REMARK   98  A    between atoms: _232  and  _234
REMARK   99  A    between atoms: _234  and  _235
REMARK  100  A    between atoms: _234  and  _237
REMARK  101  A    between atoms: _237  and  _238
REMARK  102  A    between atoms: _243  and  _245
REMARK  103  A    between atoms: _245  and  _246
REMARK  104  A    between atoms: _245  and  _248
REMARK  105  A    between atoms: _248  and  _249
REMARK  106  A    between atoms: _252  and  _254
REMARK  107  A    between atoms: _254  and  _255
REMARK  108  A    between atoms: _254  and  _257
REMARK  109  A    between atoms: _257  and  _258
REMARK  110  A    between atoms: _269  and  _270
REMARK  111  A    between atoms: _275  and  _277
REMARK  112  A    between atoms: _277  and  _278
REMARK  113  A    between atoms: _277  and  _280
REMARK  114  A    between atoms: _280  and  _281
REMARK  115  A    between atoms: _284  and  _286
REMARK  116  A    between atoms: _286  and  _287
REMARK  117  A    between atoms: _286  and  _289
REMARK  118  A    between atoms: _289  and  _290
REMARK  119  A    between atoms: _295  and  _297
REMARK  120  A    between atoms: _297  and  _298
REMARK  121  A    between atoms: _300  and  _302
REMARK  122  A    between atoms: _302  and  _303
REMARK  123  A    between atoms: _302  and  _305
REMARK  124  A    between atoms: _305  and  _306
REMARK  125  A    between atoms: _316  and  _318
REMARK  126  A    between atoms: _318  and  _319
REMARK  127  A    between atoms: _318  and  _321
REMARK  128  A    between atoms: _321  and  _322
REMARK  129  A    between atoms: _327  and  _328
REMARK  130  A    between atoms: _330  and  _332
REMARK  131  A    between atoms: _332  and  _333
REMARK  132  A    between atoms: _332  and  _335
REMARK  133  A    between atoms: _335  and  _336
REMARK  134  A    between atoms: _339  and  _341
REMARK  135  A    between atoms: _341  and  _342
REMARK  136  A    between atoms: _341  and  _344
REMARK  137  A    between atoms: _344  and  _345
REMARK  138  A    between atoms: _350  and  _352
REMARK  139  A    between atoms: _352  and  _353
REMARK  140  A    between atoms: _352  and  _355
REMARK  141  A    between atoms: _355  and  _356
REMARK  142  A    between atoms: _361  and  _363
REMARK  143  A    between atoms: _363  and  _364
REMARK  144  A    between atoms: _363  and  _366
REMARK  145  A    between atoms: _366  and  _367
REMARK  146  A    between atoms: _367  and  _368
REMARK  147  A    between atoms: _371  and  _373
REMARK  148  A    between atoms: _373  and  _374
REMARK  149  A    between atoms: _376  and  _378
REMARK  150  A    between atoms: _378  and  _379
REMARK  151  A    between atoms: _378  and  _381
REMARK  152  A    between atoms: _381  and  _382
REMARK  153  A    between atoms: _384  and  _386
REMARK  154  A    between atoms: _386  and  _387
REMARK  155  A    between atoms: _386  and  _389
REMARK  156  A    between atoms: _389  and  _390
REMARK  157  A    between atoms: _395  and  _396
REMARK  158  A    between atoms: _398  and  _400
REMARK  159  A    between atoms: _400  and  _401
REMARK  160  A    between atoms: _400  and  _403
REMARK  161  A    between atoms: _403  and  _404
REMARK  162  A    between atoms: _409  and  _411
REMARK  163  A    between atoms: _411  and  _412
REMARK  164  A    between atoms: _414  and  _416
REMARK  165  A    between atoms: _416  and  _417
REMARK  166  A    between atoms: _416  and  _419
REMARK  167  A    between atoms: _419  and  _420
REMARK  168  A    between atoms: _425  and  _427
REMARK  169  A    between atoms: _427  and  _428
REMARK  170  A    between atoms: _427  and  _430
REMARK  171  A    between atoms: _430  and  _431
REMARK  172  A    between atoms: _441  and  _443
REMARK  173  A    between atoms: _443  and  _444
REMARK  174  A    between atoms: _443  and  _446
REMARK  175  A    between atoms: _446  and  _447
REMARK  176  A    between atoms: _452  and  _454
REMARK  177  A    between atoms: _454  and  _455
REMARK  178  A    between atoms: _454  and  _457
REMARK  179  A    between atoms: _457  and  _458
REMARK  180  A    between atoms: _458  and  _459
REMARK  181  A    between atoms: _459  and  _460
REMARK  182  A    between atoms: _460  and  _461
REMARK  183  A    between atoms: _465  and  _467
REMARK  184  A    between atoms: _467  and  _468
REMARK  185  A    between atoms: _467  and  _470
REMARK  186  A    between atoms: _470  and  _471
REMARK  187  A    between atoms: _477  and  _479
REMARK  188  A    between atoms: _479  and  _480
REMARK  189  A    between atoms: _482  and  _484
REMARK  190  A    between atoms: _484  and  _485
REMARK  191  A    between atoms: _484  and  _487
REMARK  192  A    between atoms: _487  and  _488
REMARK  193  A    between atoms: _490  and  _492
REMARK  194  A    between atoms: _492  and  _493
REMARK  195  A    between atoms: _492  and  _495
REMARK  196  A    between atoms: _495  and  _496
REMARK  197  A    between atoms: _496  and  _497
REMARK  198  A    between atoms: _497  and  _498
REMARK  199  A    between atoms: _498  and  _499
REMARK  200  A    between atoms: _503  and  _505
REMARK  201  A    between atoms: _505  and  _506
REMARK  202  A    between atoms: _505  and  _508
REMARK  203  A    between atoms: _508  and  _509
REMARK  204  A    between atoms: _514  and  _516
REMARK  205  A    between atoms: _516  and  _517
REMARK  206  A    between atoms: _516  and  _519
REMARK  207  A    between atoms: _519  and  _520
REMARK  208  A    between atoms: _520  and  _521
REMARK  209  A    between atoms: _521  and  _522
REMARK  210  A    between atoms: _531  and  _533
REMARK  211  A    between atoms: _533  and  _534
REMARK  212  A    between atoms: _533  and  _536
REMARK  213  A    between atoms: _536  and  _537
REMARK  214  A    between atoms: _537  and  _538
REMARK  215  A    between atoms: _543  and  _545
REMARK  216  A    between atoms: _545  and  _546
REMARK  217  A    between atoms: _545  and  _548
REMARK  218  A    between atoms: _548  and  _549
REMARK  219  A    between atoms: _549  and  _550
REMARK  220  A    between atoms: _555  and  _557
REMARK  221  A    between atoms: _557  and  _558
REMARK  222  A    between atoms: _557  and  _560
REMARK  223  A    between atoms: _560  and  _561
REMARK  224  A    between atoms: _564  and  _566
REMARK  225  A    between atoms: _566  and  _567
REMARK  226  A    between atoms: _566  and  _569
REMARK  227  A    between atoms: _569  and  _570
REMARK  228  A    between atoms: _570  and  _571
REMARK  229  A    between atoms: _573  and  _575
REMARK  230  A    between atoms: _575  and  _576
REMARK  231  A    between atoms: _575  and  _578
REMARK  232  A    between atoms: _578  and  _579
REMARK  233  A    between atoms: _581  and  _583
REMARK  234  A    between atoms: _583  and  _584
REMARK  235  A    between atoms: _586  and  _588
REMARK  236  A    between atoms: _588  and  _589
REMARK  237  A    between atoms: _588  and  _591
REMARK  238  A    between atoms: _591  and  _592
REMARK  239  A    between atoms: _597  and  _598
REMARK  240  A    between atoms: _600  and  _602
REMARK  241  A    between atoms: _602  and  _603
REMARK  242  A    between atoms: _602  and  _605
REMARK  243  A    between atoms: _605  and  _606
REMARK  244  A    between atoms: _616  and  _618
REMARK  245  A    between atoms: _618  and  _619
REMARK  246  A    between atoms: _618  and  _621
REMARK  247  A    between atoms: _621  and  _622
REMARK  248  A    between atoms: _625  and  _627
REMARK  249  A    between atoms: _627  and  _628
REMARK  250  A    between atoms: _631  and  _633
REMARK  251  A    between atoms: _633  and  _634
REMARK  252  A    between atoms: _637  and  _639
REMARK  253  A    between atoms: _639  and  _640
REMARK  254  A    between atoms: _639  and  _642
REMARK  255  A    between atoms: _642  and  _643
REMARK  256  A    between atoms: _647  and  _648
REMARK                            x       y       z     vdW  Elec       q    Type
REMARK                         _______ _______ _______ _____ _____    ______ ____
ROOT
ATOM      1  O   HOH     1      34.471  71.434  29.294  0.00  0.00    +0.000 OA
ENDROOT
TORSDOF 0
REMARK  Name = ../refined-set-2016/4uac/4uac_pocket.pdb
REMARK  256 active torsions:
REMARK  status: ('A' for Active; 'I' for Inactive)
REMARK    1  A    between atoms: _1  and  _3
REMARK    2  A    between atoms: _3  and  _4
REMARK    3  A    between atoms: _7  and  _8
REMARK    4  A    between atoms: _13  and  _15
REMARK    5  A    between atoms: _15  and  _16
REMARK    6  A    between atoms: _19  and  _21
REMARK    7  A    between atoms: _21  and  _22
REMARK    8  A    between atoms: _21  and  _24
REMARK    9  A    between atoms: _24  and  _25
REMARK   10  A    between atoms: _25  and  _26
REMARK   11  A    between atoms: _29  and  _31
REMARK   12  A    between atoms: _31  and  _32
REMARK   13  A    between atoms: _31  and  _34
REMARK   14  A    between atoms: _34  and  _35
REMARK   15  A    between atoms: _38  and  _40
REMARK   16  A    between atoms: _40  and  _41
REMARK   17  A    between atoms: _40  and  _43
REMARK   18  A    between atoms: _43  and  _44
REMARK   19  A    between atoms: _46  and  _48
REMARK   20  A    between atoms: _48  and  _49
REMARK   21  A    between atoms: _48  and  _51
REMARK   22  A    between atoms: _51  and  _52
REMARK   23  A    between atoms: _54  and  _56
REMARK   24  A    between atoms: _56  and  _57
REMARK   25  A    between atoms: _56  and  _59
REMARK   26  A    between atoms: _59  and  _60
REMARK   27  A    between atoms: _60  and  _61
REMARK   28  A    between atoms: _64  and  _66
REMARK   29  A    between atoms: _66  and  _67
REMARK   30  A    between atoms: _66  and  _69
REMARK   31  A    between atoms: _69  and  _70
REMARK   32  A    between atoms: _72  and  _74
REMARK   33  A    between atoms: _74  and  _75
REMARK   34  A    between atoms: _74  and  _77
REMARK   35  A    between atoms: _77  and  _78
REMARK   36  A    between atoms: _81  and  _83
REMARK   37  A    between atoms: _83  and  _84
REMARK   38  A    between atoms: _87  and  _89
REMARK   39  A    between atoms: _89  and  _90
REMARK   40  A    between atoms: _89  and  _92
REMARK   41  A    between atoms: _92  and  _93
REMARK   42  A    between atoms: _93  and  _94
REMARK   43  A    between atoms: _94  and  _95
REMARK   44  A    between atoms: _95  and  _96
REMARK   45  A    between atoms: _100  and  _102
REMARK   46  A    between atoms: _102  and  _103
REMARK   47  A    between atoms: _102  and  _105
REMARK   48  A    between atoms: _105  and  _106
REMARK   49  A    between atoms: _109  and  _111
REMARK   50  A    between atoms: _111  and  _112
REMARK   51  A    between atoms: _111  and  _114
REMARK   52  A    between atoms: _117  and  _119
REMARK   53  A    between atoms: _119  and  _120
REMARK   54  A    between atoms: _119  and  _122
REMARK   55  A    between atoms: _122  and  _123
REMARK   56  A    between atoms: _126  and  _128
REMARK   57  A    between atoms: _128  and  _129
REMARK   58  A    between atoms: _128  and  _131
REMARK   59  A    between atoms: _131  and  _132
REMARK   60  A    between atoms: _132  and  _133
REMARK   61  A    between atoms: _135  and  _137
REMARK   62  A    between atoms: _137  and  _138
REMARK   63  A    between atoms: _137  and  _140
REMARK   64  A    between atoms: _140  and  _141
REMARK   65  A    between atoms: _147  and  _149
REMARK   66  A    between atoms: _149  and  _150
REMARK   67  A    between atoms: _153  and  _155
REMARK   68  A    between atoms: _155  and  _156
REMARK   69  A    between atoms: _155  and  _158
REMARK   70  A    between atoms: _158  and  _159
REMARK   71  A    between atoms: _164  and  _166
REMARK   72  A    between atoms: _166  and  _167
REMARK   73  A    between atoms: _166  and  _169
REMARK   74  A    between atoms: _169  and  _170
REMARK   75  A    between atoms: _173  and  _175
REMARK   76  A    between atoms: _175  and  _176
REMARK   77  A    between atoms: _175  and  _178
REMARK   78  A    between atoms: _178  and  _179
REMARK   79  A    between atoms: _179  and  _180
REMARK   80  A    between atoms: _185  and  _187
REMARK   81  A    between atoms: _187  and  _188
REMARK   82  A    between atoms: _187  and  _190
REMARK   83  A    between atoms: _190  and  _191
REMARK   84  A    between atoms: _195  and  _196
REMARK   85  A    between atoms: _201  and  _203
REMARK   86  A    between atoms: _203  and  _204
REMARK   87  A    between atoms: _203  and  _206
REMARK   88  A    between atoms: _206  and  _207
REMARK   89  A    between atoms: _212  and  _213
REMARK   90  A    between atoms: _215  and  _217
REMARK   91  A    between atoms: _217  and  _218
REMARK   92  A    between atoms: _217  and  _220
REMARK   93  A    between atoms: _220  and  _221
REMARK   94  A    between atoms: _224  and  _226
REMARK   95  A    between atoms: _226  and  _227
REMARK   96  A    between atoms: _226  and  _229
REMARK   97  A    between atoms: _229  and  _230
REMARK   98  A    between atoms: _232  and  _234
REMARK   99  A    between atoms: _234  and  _235
REMARK  100  A    between atoms: _234  and  _237
REMARK  101  A    between atoms: _237  and  _238
REMARK  102  A    between atoms: _243  and  _245
REMARK  103  A    between atoms: _245  and  _246
REMARK  104  A    between atoms: _245  and  _248
REMARK  105  A    between atoms: _248  and  _249
REMARK  106  A    between atoms: _252  and  _254
REMARK  107  A    between atoms: _254  and  _255
REMARK  108  A    between atoms: _254  and  _257
REMARK  109  A    between atoms: _257  and  _258
REMARK  110  A    between atoms: _269  and  _270
REMARK  111  A    between atoms: _275  and  _277
REMARK  112  A    between atoms: _277  and  _278
REMARK  113  A    between atoms: _277  and  _280
REMARK  114  A    between atoms: _280  and  _281
REMARK  115  A    between atoms: _284  and  _286
REMARK  116  A    between atoms: _286  and  _287
REMARK  117  A    between atoms: _286  and  _289
REMARK  118  A    between atoms: _289  and  _290
REMARK  119  A    between atoms: _295  and  _297
REMARK  120  A    between atoms: _297  and  _298
REMARK  121  A    between atoms: _300  and  _302
REMARK  122  A    between atoms: _302  and  _303
REMARK  123  A    between atoms: _302  and  _305
REMARK  124  A    between atoms: _305  and  _306
REMARK  125  A    between atoms: _316  and  _318
REMARK  126  A    between atoms: _318  and  _319
REMARK  127  A    between atoms: _318  and  _321
REMARK  128  A    between atoms: _321  and  _322
REMARK  129  A    between atoms: _327  and  _328
REMARK  130  A    between atoms: _330  and  _332
REMARK  131  A    between atoms: _332  and  _333
REMARK  132  A    between atoms: _332  and  _335
REMARK  133  A    between atoms: _335  and  _336
REMARK  134  A    between atoms: _339  and  _341
REMARK  135  A    between atoms: _341  and  _342
REMARK  136  A    between atoms: _341  and  _344
REMARK  137  A    between atoms: _344  and  _345
REMARK  138  A    between atoms: _350  and  _352
REMARK  139  A    between atoms: _352  and  _353
REMARK  140  A    between atoms: _352  and  _355
REMARK  141  A    between atoms: _355  and  _356
REMARK  142  A    between atoms: _361  and  _363
REMARK  143  A    between atoms: _363  and  _364
REMARK  144  A    between atoms: _363  and  _366
REMARK  145  A    between atoms: _366  and  _367
REMARK  146  A    between atoms: _367  and  _368
REMARK  147  A    between atoms: _371  and  _373
REMARK  148  A    between atoms: _373  and  _374
REMARK  149  A    between atoms: _376  and  _378
REMARK  150  A    between atoms: _378  and  _379
REMARK  151  A    between atoms: _378  and  _381
REMARK  152  A    between atoms: _381  and  _382
REMARK  153  A    between atoms: _384  and  _386
REMARK  154  A    between atoms: _386  and  _387
REMARK  155  A    between atoms: _386  and  _389
REMARK  156  A    between atoms: _389  and  _390
REMARK  157  A    between atoms: _395  and  _396
REMARK  158  A    between atoms: _398  and  _400
REMARK  159  A    between atoms: _400  and  _401
REMARK  160  A    between atoms: _400  and  _403
REMARK  161  A    between atoms: _403  and  _404
REMARK  162  A    between atoms: _409  and  _411
REMARK  163  A    between atoms: _411  and  _412
REMARK  164  A    between atoms: _414  and  _416
REMARK  165  A    between atoms: _416  and  _417
REMARK  166  A    between atoms: _416  and  _419
REMARK  167  A    between atoms: _419  and  _420
REMARK  168  A    between atoms: _425  and  _427
REMARK  169  A    between atoms: _427  and  _428
REMARK  170  A    between atoms: _427  and  _430
REMARK  171  A    between atoms: _430  and  _431
REMARK  172  A    between atoms: _441  and  _443
REMARK  173  A    between atoms: _443  and  _444
REMARK  174  A    between atoms: _443  and  _446
REMARK  175  A    between atoms: _446  and  _447
REMARK  176  A    between atoms: _452  and  _454
REMARK  177  A    between atoms: _454  and  _455
REMARK  178  A    between atoms: _454  and  _457
REMARK  179  A    between atoms: _457  and  _458
REMARK  180  A    between atoms: _458  and  _459
REMARK  181  A    between atoms: _459  and  _460
REMARK  182  A    between atoms: _460  and  _461
REMARK  183  A    between atoms: _465  and  _467
REMARK  184  A    between atoms: _467  and  _468
REMARK  185  A    between atoms: _467  and  _470
REMARK  186  A    between atoms: _470  and  _471
REMARK  187  A    between atoms: _477  and  _479
REMARK  188  A    between atoms: _479  and  _480
REMARK  189  A    between atoms: _482  and  _484
REMARK  190  A    between atoms: _484  and  _485
REMARK  191  A    between atoms: _484  and  _487
REMARK  192  A    between atoms: _487  and  _488
REMARK  193  A    between atoms: _490  and  _492
REMARK  194  A    between atoms: _492  and  _493
REMARK  195  A    between atoms: _492  and  _495
REMARK  196  A    between atoms: _495  and  _496
REMARK  197  A    between atoms: _496  and  _497
REMARK  198  A    between atoms: _497  and  _498
REMARK  199  A    between atoms: _498  and  _499
REMARK  200  A    between atoms: _503  and  _505
REMARK  201  A    between atoms: _505  and  _506
REMARK  202  A    between atoms: _505  and  _508
REMARK  203  A    between atoms: _508  and  _509
REMARK  204  A    between atoms: _514  and  _516
REMARK  205  A    between atoms: _516  and  _517
REMARK  206  A    between atoms: _516  and  _519
REMARK  207  A    between atoms: _519  and  _520
REMARK  208  A    between atoms: _520  and  _521
REMARK  209  A    between atoms: _521  and  _522
REMARK  210  A    between atoms: _531  and  _533
REMARK  211  A    between atoms: _533  and  _534
REMARK  212  A    between atoms: _533  and  _536
REMARK  213  A    between atoms: _536  and  _537
REMARK  214  A    between atoms: _537  and  _538
REMARK  215  A    between atoms: _543  and  _545
REMARK  216  A    between atoms: _545  and  _546
REMARK  217  A    between atoms: _545  and  _548
REMARK  218  A    between atoms: _548  and  _549
REMARK  219  A    between atoms: _549  and  _550
REMARK  220  A    between atoms: _555  and  _557
REMARK  221  A    between atoms: _557  and  _558
REMARK  222  A    between atoms: _557  and  _560
REMARK  223  A    between atoms: _560  and  _561
REMARK  224  A    between atoms: _564  and  _566
REMARK  225  A    between atoms: _566  and  _567
REMARK  226  A    between atoms: _566  and  _569
REMARK  227  A    between atoms: _569  and  _570
REMARK  228  A    between atoms: _570  and  _571
REMARK  229  A    between atoms: _573  and  _575
REMARK  230  A    between atoms: _575  and  _576
REMARK  231  A    between atoms: _575  and  _578
REMARK  232  A    between atoms: _578  and  _579
REMARK  233  A    between atoms: _581  and  _583
REMARK  234  A    between atoms: _583  and  _584
REMARK  235  A    between atoms: _586  and  _588
REMARK  236  A    between atoms: _588  and  _589
REMARK  237  A    between atoms: _588  and  _591
REMARK  238  A    between atoms: _591  and  _592
REMARK  239  A    between atoms: _597  and  _598
REMARK  240  A    between atoms: _600  and  _602
REMARK  241  A    between atoms: _602  and  _603
REMARK  242  A    between atoms: _602  and  _605
REMARK  243  A    between atoms: _605  and  _606
REMARK  244  A    between atoms: _616  and  _618
REMARK  245  A    between atoms: _618  and  _619
REMARK  246  A    between atoms: _618  and  _621
REMARK  247  A    between atoms: _621  and  _622
REMARK  248  A    between atoms: _625  and  _627
REMARK  249  A    between atoms: _627  and  _628
REMARK  250  A    between atoms: _631  and  _633
REMARK  251  A    between atoms: _633  and  _634
REMARK  252  A    between atoms: _637  and  _639
REMARK  253  A    between atoms: _639  and  _640
REMARK  254  A    between atoms: _639  and  _642
REMARK  255  A    between atoms: _642  and  _643
REMARK  256  A    between atoms: _647  and  _648
REMARK                            x       y       z     vdW  Elec       q    Type
REMARK                         _______ _______ _______ _____ _____    ______ ____
ROOT
ATOM      1  O   HOH     1      31.970  58.500  23.313  0.00  0.00    +0.000 OA
ENDROOT
TORSDOF 0
REMARK  Name = ../refined-set-2016/4uac/4uac_pocket.pdb
REMARK  256 active torsions:
REMARK  status: ('A' for Active; 'I' for Inactive)
REMARK    1  A    between atoms: _1  and  _3
REMARK    2  A    between atoms: _3  and  _4
REMARK    3  A    between atoms: _7  and  _8
REMARK    4  A    between atoms: _13  and  _15
REMARK    5  A    between atoms: _15  and  _16
REMARK    6  A    between atoms: _19  and  _21
REMARK    7  A    between atoms: _21  and  _22
REMARK    8  A    between atoms: _21  and  _24
REMARK    9  A    between atoms: _24  and  _25
REMARK   10  A    between atoms: _25  and  _26
REMARK   11  A    between atoms: _29  and  _31
REMARK   12  A    between atoms: _31  and  _32
REMARK   13  A    between atoms: _31  and  _34
REMARK   14  A    between atoms: _34  and  _35
REMARK   15  A    between atoms: _38  and  _40
REMARK   16  A    between atoms: _40  and  _41
REMARK   17  A    between atoms: _40  and  _43
REMARK   18  A    between atoms: _43  and  _44
REMARK   19  A    between atoms: _46  and  _48
REMARK   20  A    between atoms: _48  and  _49
REMARK   21  A    between atoms: _48  and  _51
REMARK   22  A    between atoms: _51  and  _52
REMARK   23  A    between atoms: _54  and  _56
REMARK   24  A    between atoms: _56  and  _57
REMARK   25  A    between atoms: _56  and  _59
REMARK   26  A    between atoms: _59  and  _60
REMARK   27  A    between atoms: _60  and  _61
REMARK   28  A    between atoms: _64  and  _66
REMARK   29  A    between atoms: _66  and  _67
REMARK   30  A    between atoms: _66  and  _69
REMARK   31  A    between atoms: _69  and  _70
REMARK   32  A    between atoms: _72  and  _74
REMARK   33  A    between atoms: _74  and  _75
REMARK   34  A    between atoms: _74  and  _77
REMARK   35  A    between atoms: _77  and  _78
REMARK   36  A    between atoms: _81  and  _83
REMARK   37  A    between atoms: _83  and  _84
REMARK   38  A    between atoms: _87  and  _89
REMARK   39  A    between atoms: _89  and  _90
REMARK   40  A    between atoms: _89  and  _92
REMARK   41  A    between atoms: _92  and  _93
REMARK   42  A    between atoms: _93  and  _94
REMARK   43  A    between atoms: _94  and  _95
REMARK   44  A    between atoms: _95  and  _96
REMARK   45  A    between atoms: _100  and  _102
REMARK   46  A    between atoms: _102  and  _103
REMARK   47  A    between atoms: _102  and  _105
REMARK   48  A    between atoms: _105  and  _106
REMARK   49  A    between atoms: _109  and  _111
REMARK   50  A    between atoms: _111  and  _112
REMARK   51  A    between atoms: _111  and  _114
REMARK   52  A    between atoms: _117  and  _119
REMARK   53  A    between atoms: _119  and  _120
REMARK   54  A    between atoms: _119  and  _122
REMARK   55  A    between atoms: _122  and  _123
REMARK   56  A    between atoms: _126  and  _128
REMARK   57  A    between atoms: _128  and  _129
REMARK   58  A    between atoms: _128  and  _131
REMARK   59  A    between atoms: _131  and  _132
REMARK   60  A    between atoms: _132  and  _133
REMARK   61  A    between atoms: _135  and  _137
REMARK   62  A    between atoms: _137  and  _138
REMARK   63  A    between atoms: _137  and  _140
REMARK   64  A    between atoms: _140  and  _141
REMARK   65  A    between atoms: _147  and  _149
REMARK   66  A    between atoms: _149  and  _150
REMARK   67  A    between atoms: _153  and  _155
REMARK   68  A    between atoms: _155  and  _156
REMARK   69  A    between atoms: _155  and  _158
REMARK   70  A    between atoms: _158  and  _159
REMARK   71  A    between atoms: _164  and  _166
REMARK   72  A    between atoms: _166  and  _167
REMARK   73  A    between atoms: _166  and  _169
REMARK   74  A    between atoms: _169  and  _170
REMARK   75  A    between atoms: _173  and  _175
REMARK   76  A    between atoms: _175  and  _176
REMARK   77  A    between atoms: _175  and  _178
REMARK   78  A    between atoms: _178  and  _179
REMARK   79  A    between atoms: _179  and  _180
REMARK   80  A    between atoms: _185  and  _187
REMARK   81  A    between atoms: _187  and  _188
REMARK   82  A    between atoms: _187  and  _190
REMARK   83  A    between atoms: _190  and  _191
REMARK   84  A    between atoms: _195  and  _196
REMARK   85  A    between atoms: _201  and  _203
REMARK   86  A    between atoms: _203  and  _204
REMARK   87  A    between atoms: _203  and  _206
REMARK   88  A    between atoms: _206  and  _207
REMARK   89  A    between atoms: _212  and  _213
REMARK   90  A    between atoms: _215  and  _217
REMARK   91  A    between atoms: _217  and  _218
REMARK   92  A    between atoms: _217  and  _220
REMARK   93  A    between atoms: _220  and  _221
REMARK   94  A    between atoms: _224  and  _226
REMARK   95  A    between atoms: _226  and  _227
REMARK   96  A    between atoms: _226  and  _229
REMARK   97  A    between atoms: _229  and  _230
REMARK   98  A    between atoms: _232  and  _234
REMARK   99  A    between atoms: _234  and  _235
REMARK  100  A    between atoms: _234  and  _237
REMARK  101  A    between atoms: _237  and  _238
REMARK  102  A    between atoms: _243  and  _245
REMARK  103  A    between atoms: _245  and  _246
REMARK  104  A    between atoms: _245  and  _248
REMARK  105  A    between atoms: _248  and  _249
REMARK  106  A    between atoms: _252  and  _254
REMARK  107  A    between atoms: _254  and  _255
REMARK  108  A    between atoms: _254  and  _257
REMARK  109  A    between atoms: _257  and  _258
REMARK  110  A    between atoms: _269  and  _270
REMARK  111  A    between atoms: _275  and  _277
REMARK  112  A    between atoms: _277  and  _278
REMARK  113  A    between atoms: _277  and  _280
REMARK  114  A    between atoms: _280  and  _281
REMARK  115  A    between atoms: _284  and  _286
REMARK  116  A    between atoms: _286  and  _287
REMARK  117  A    between atoms: _286  and  _289
REMARK  118  A    between atoms: _289  and  _290
REMARK  119  A    between atoms: _295  and  _297
REMARK  120  A    between atoms: _297  and  _298
REMARK  121  A    between atoms: _300  and  _302
REMARK  122  A    between atoms: _302  and  _303
REMARK  123  A    between atoms: _302  and  _305
REMARK  124  A    between atoms: _305  and  _306
REMARK  125  A    between atoms: _316  and  _318
REMARK  126  A    between atoms: _318  and  _319
REMARK  127  A    between atoms: _318  and  _321
REMARK  128  A    between atoms: _321  and  _322
REMARK  129  A    between atoms: _327  and  _328
REMARK  130  A    between atoms: _330  and  _332
REMARK  131  A    between atoms: _332  and  _333
REMARK  132  A    between atoms: _332  and  _335
REMARK  133  A    between atoms: _335  and  _336
REMARK  134  A    between atoms: _339  and  _341
REMARK  135  A    between atoms: _341  and  _342
REMARK  136  A    between atoms: _341  and  _344
REMARK  137  A    between atoms: _344  and  _345
REMARK  138  A    between atoms: _350  and  _352
REMARK  139  A    between atoms: _352  and  _353
REMARK  140  A    between atoms: _352  and  _355
REMARK  141  A    between atoms: _355  and  _356
REMARK  142  A    between atoms: _361  and  _363
REMARK  143  A    between atoms: _363  and  _364
REMARK  144  A    between atoms: _363  and  _366
REMARK  145  A    between atoms: _366  and  _367
REMARK  146  A    between atoms: _367  and  _368
REMARK  147  A    between atoms: _371  and  _373
REMARK  148  A    between atoms: _373  and  _374
REMARK  149  A    between atoms: _376  and  _378
REMARK  150  A    between atoms: _378  and  _379
REMARK  151  A    between atoms: _378  and  _381
REMARK  152  A    between atoms: _381  and  _382
REMARK  153  A    between atoms: _384  and  _386
REMARK  154  A    between atoms: _386  and  _387
REMARK  155  A    between atoms: _386  and  _389
REMARK  156  A    between atoms: _389  and  _390
REMARK  157  A    between atoms: _395  and  _396
REMARK  158  A    between atoms: _398  and  _400
REMARK  159  A    between atoms: _400  and  _401
REMARK  160  A    between atoms: _400  and  _403
REMARK  161  A    between atoms: _403  and  _404
REMARK  162  A    between atoms: _409  and  _411
REMARK  163  A    between atoms: _411  and  _412
REMARK  164  A    between atoms: _414  and  _416
REMARK  165  A    between atoms: _416  and  _417
REMARK  166  A    between atoms: _416  and  _419
REMARK  167  A    between atoms: _419  and  _420
REMARK  168  A    between atoms: _425  and  _427
REMARK  169  A    between atoms: _427  and  _428
REMARK  170  A    between atoms: _427  and  _430
REMARK  171  A    between atoms: _430  and  _431
REMARK  172  A    between atoms: _441  and  _443
REMARK  173  A    between atoms: _443  and  _444
REMARK  174  A    between atoms: _443  and  _446
REMARK  175  A    between atoms: _446  and  _447
REMARK  176  A    between atoms: _452  and  _454
REMARK  177  A    between atoms: _454  and  _455
REMARK  178  A    between atoms: _454  and  _457
REMARK  179  A    between atoms: _457  and  _458
REMARK  180  A    between atoms: _458  and  _459
REMARK  181  A    between atoms: _459  and  _460
REMARK  182  A    between atoms: _460  and  _461
REMARK  183  A    between atoms: _465  and  _467
REMARK  184  A    between atoms: _467  and  _468
REMARK  185  A    between atoms: _467  and  _470
REMARK  186  A    between atoms: _470  and  _471
REMARK  187  A    between atoms: _477  and  _479
REMARK  188  A    between atoms: _479  and  _480
REMARK  189  A    between atoms: _482  and  _484
REMARK  190  A    between atoms: _484  and  _485
REMARK  191  A    between atoms: _484  and  _487
REMARK  192  A    between atoms: _487  and  _488
REMARK  193  A    between atoms: _490  and  _492
REMARK  194  A    between atoms: _492  and  _493
REMARK  195  A    between atoms: _492  and  _495
REMARK  196  A    between atoms: _495  and  _496
REMARK  197  A    between atoms: _496  and  _497
REMARK  198  A    between atoms: _497  and  _498
REMARK  199  A    between atoms: _498  and  _499
REMARK  200  A    between atoms: _503  and  _505
REMARK  201  A    between atoms: _505  and  _506
REMARK  202  A    between atoms: _505  and  _508
REMARK  203  A    between atoms: _508  and  _509
REMARK  204  A    between atoms: _514  and  _516
REMARK  205  A    between atoms: _516  and  _517
REMARK  206  A    between atoms: _516  and  _519
REMARK  207  A    between atoms: _519  and  _520
REMARK  208  A    between atoms: _520  and  _521
REMARK  209  A    between atoms: _521  and  _522
REMARK  210  A    between atoms: _531  and  _533
REMARK  211  A    between atoms: _533  and  _534
REMARK  212  A    between atoms: _533  and  _536
REMARK  213  A    between atoms: _536  and  _537
REMARK  214  A    between atoms: _537  and  _538
REMARK  215  A    between atoms: _543  and  _545
REMARK  216  A    between atoms: _545  and  _546
REMARK  217  A    between atoms: _545  and  _548
REMARK  218  A    between atoms: _548  and  _549
REMARK  219  A    between atoms: _549  and  _550
REMARK  220  A    between atoms: _555  and  _557
REMARK  221  A    between atoms: _557  and  _558
REMARK  222  A    between atoms: _557  and  _560
REMARK  223  A    between atoms: _560  and  _561
REMARK  224  A    between atoms: _564  and  _566
REMARK  225  A    between atoms: _566  and  _567
REMARK  226  A    between atoms: _566  and  _569
REMARK  227  A    between atoms: _569  and  _570
REMARK  228  A    between atoms: _570  and  _571
REMARK  229  A    between atoms: _573  and  _575
REMARK  230  A    between atoms: _575  and  _576
REMARK  231  A    between atoms: _575  and  _578
REMARK  232  A    between atoms: _578  and  _579
REMARK  233  A    between atoms: _581  and  _583
REMARK  234  A    between atoms: _583  and  _584
REMARK  235  A    between atoms: _586  and  _588
REMARK  236  A    between atoms: _588  and  _589
REMARK  237  A    between atoms: _588  and  _591
REMARK  238  A    between atoms: _591  and  _592
REMARK  239  A    between atoms: _597  and  _598
REMARK  240  A    between atoms: _600  and  _602
REMARK  241  A    between atoms: _602  and  _603
REMARK  242  A    between atoms: _602  and  _605
REMARK  243  A    between atoms: _605  and  _606
REMARK  244  A    between atoms: _616  and  _618
REMARK  245  A    between atoms: _618  and  _619
REMARK  246  A    between atoms: _618  and  _621
REMARK  247  A    between atoms: _621  and  _622
REMARK  248  A    between atoms: _625  and  _627
REMARK  249  A    between atoms: _627  and  _628
REMARK  250  A    between atoms: _631  and  _633
REMARK  251  A    between atoms: _633  and  _634
REMARK  252  A    between atoms: _637  and  _639
REMARK  253  A    between atoms: _639  and  _640
REMARK  254  A    between atoms: _639  and  _642
REMARK  255  A    between atoms: _642  and  _643
REMARK  256  A    between atoms: _647  and  _648
REMARK                            x       y       z     vdW  Elec       q    Type
REMARK                         _______ _______ _______ _____ _____    ______ ____
ROOT
ATOM      1  O   HOH     1      22.355  60.339  27.259  0.00  0.00    +0.000 OA
ENDROOT
TORSDOF 0
REMARK  Name = ../refined-set-2016/4uac/4uac_pocket.pdb
REMARK  256 active torsions:
REMARK  status: ('A' for Active; 'I' for Inactive)
REMARK    1  A    between atoms: _1  and  _3
REMARK    2  A    between atoms: _3  and  _4
REMARK    3  A    between atoms: _7  and  _8
REMARK    4  A    between atoms: _13  and  _15
REMARK    5  A    between atoms: _15  and  _16
REMARK    6  A    between atoms: _19  and  _21
REMARK    7  A    between atoms: _21  and  _22
REMARK    8  A    between atoms: _21  and  _24
REMARK    9  A    between atoms: _24  and  _25
REMARK   10  A    between atoms: _25  and  _26
REMARK   11  A    between atoms: _29  and  _31
REMARK   12  A    between atoms: _31  and  _32
REMARK   13  A    between atoms: _31  and  _34
REMARK   14  A    between atoms: _34  and  _35
REMARK   15  A    between atoms: _38  and  _40
REMARK   16  A    between atoms: _40  and  _41
REMARK   17  A    between atoms: _40  and  _43
REMARK   18  A    between atoms: _43  and  _44
REMARK   19  A    between atoms: _46  and  _48
REMARK   20  A    between atoms: _48  and  _49
REMARK   21  A    between atoms: _48  and  _51
REMARK   22  A    between atoms: _51  and  _52
REMARK   23  A    between atoms: _54  and  _56
REMARK   24  A    between atoms: _56  and  _57
REMARK   25  A    between atoms: _56  and  _59
REMARK   26  A    between atoms: _59  and  _60
REMARK   27  A    between atoms: _60  and  _61
REMARK   28  A    between atoms: _64  and  _66
REMARK   29  A    between atoms: _66  and  _67
REMARK   30  A    between atoms: _66  and  _69
REMARK   31  A    between atoms: _69  and  _70
REMARK   32  A    between atoms: _72  and  _74
REMARK   33  A    between atoms: _74  and  _75
REMARK   34  A    between atoms: _74  and  _77
REMARK   35  A    between atoms: _77  and  _78
REMARK   36  A    between atoms: _81  and  _83
REMARK   37  A    between atoms: _83  and  _84
REMARK   38  A    between atoms: _87  and  _89
REMARK   39  A    between atoms: _89  and  _90
REMARK   40  A    between atoms: _89  and  _92
REMARK   41  A    between atoms: _92  and  _93
REMARK   42  A    between atoms: _93  and  _94
REMARK   43  A    between atoms: _94  and  _95
REMARK   44  A    between atoms: _95  and  _96
REMARK   45  A    between atoms: _100  and  _102
REMARK   46  A    between atoms: _102  and  _103
REMARK   47  A    between atoms: _102  and  _105
REMARK   48  A    between atoms: _105  and  _106
REMARK   49  A    between atoms: _109  and  _111
REMARK   50  A    between atoms: _111  and  _112
REMARK   51  A    between atoms: _111  and  _114
REMARK   52  A    between atoms: _117  and  _119
REMARK   53  A    between atoms: _119  and  _120
REMARK   54  A    between atoms: _119  and  _122
REMARK   55  A    between atoms: _122  and  _123
REMARK   56  A    between atoms: _126  and  _128
REMARK   57  A    between atoms: _128  and  _129
REMARK   58  A    between atoms: _128  and  _131
REMARK   59  A    between atoms: _131  and  _132
REMARK   60  A    between atoms: _132  and  _133
REMARK   61  A    between atoms: _135  and  _137
REMARK   62  A    between atoms: _137  and  _138
REMARK   63  A    between atoms: _137  and  _140
REMARK   64  A    between atoms: _140  and  _141
REMARK   65  A    between atoms: _147  and  _149
REMARK   66  A    between atoms: _149  and  _150
REMARK   67  A    between atoms: _153  and  _155
REMARK   68  A    between atoms: _155  and  _156
REMARK   69  A    between atoms: _155  and  _158
REMARK   70  A    between atoms: _158  and  _159
REMARK   71  A    between atoms: _164  and  _166
REMARK   72  A    between atoms: _166  and  _167
REMARK   73  A    between atoms: _166  and  _169
REMARK   74  A    between atoms: _169  and  _170
REMARK   75  A    between atoms: _173  and  _175
REMARK   76  A    between atoms: _175  and  _176
REMARK   77  A    between atoms: _175  and  _178
REMARK   78  A    between atoms: _178  and  _179
REMARK   79  A    between atoms: _179  and  _180
REMARK   80  A    between atoms: _185  and  _187
REMARK   81  A    between atoms: _187  and  _188
REMARK   82  A    between atoms: _187  and  _190
REMARK   83  A    between atoms: _190  and  _191
REMARK   84  A    between atoms: _195  and  _196
REMARK   85  A    between atoms: _201  and  _203
REMARK   86  A    between atoms: _203  and  _204
REMARK   87  A    between atoms: _203  and  _206
REMARK   88  A    between atoms: _206  and  _207
REMARK   89  A    between atoms: _212  and  _213
REMARK   90  A    between atoms: _215  and  _217
REMARK   91  A    between atoms: _217  and  _218
REMARK   92  A    between atoms: _217  and  _220
REMARK   93  A    between atoms: _220  and  _221
REMARK   94  A    between atoms: _224  and  _226
REMARK   95  A    between atoms: _226  and  _227
REMARK   96  A    between atoms: _226  and  _229
REMARK   97  A    between atoms: _229  and  _230
REMARK   98  A    between atoms: _232  and  _234
REMARK   99  A    between atoms: _234  and  _235
REMARK  100  A    between atoms: _234  and  _237
REMARK  101  A    between atoms: _237  and  _238
REMARK  102  A    between atoms: _243  and  _245
REMARK  103  A    between atoms: _245  and  _246
REMARK  104  A    between atoms: _245  and  _248
REMARK  105  A    between atoms: _248  and  _249
REMARK  106  A    between atoms: _252  and  _254
REMARK  107  A    between atoms: _254  and  _255
REMARK  108  A    between atoms: _254  and  _257
REMARK  109  A    between atoms: _257  and  _258
REMARK  110  A    between atoms: _269  and  _270
REMARK  111  A    between atoms: _275  and  _277
REMARK  112  A    between atoms: _277  and  _278
REMARK  113  A    between atoms: _277  and  _280
REMARK  114  A    between atoms: _280  and  _281
REMARK  115  A    between atoms: _284  and  _286
REMARK  116  A    between atoms: _286  and  _287
REMARK  117  A    between atoms: _286  and  _289
REMARK  118  A    between atoms: _289  and  _290
REMARK  119  A    between atoms: _295  and  _297
REMARK  120  A    between atoms: _297  and  _298
REMARK  121  A    between atoms: _300  and  _302
REMARK  122  A    between atoms: _302  and  _303
REMARK  123  A    between atoms: _302  and  _305
REMARK  124  A    between atoms: _305  and  _306
REMARK  125  A    between atoms: _316  and  _318
REMARK  126  A    between atoms: _318  and  _319
REMARK  127  A    between atoms: _318  and  _321
REMARK  128  A    between atoms: _321  and  _322
REMARK  129  A    between atoms: _327  and  _328
REMARK  130  A    between atoms: _330  and  _332
REMARK  131  A    between atoms: _332  and  _333
REMARK  132  A    between atoms: _332  and  _335
REMARK  133  A    between atoms: _335  and  _336
REMARK  134  A    between atoms: _339  and  _341
REMARK  135  A    between atoms: _341  and  _342
REMARK  136  A    between atoms: _341  and  _344
REMARK  137  A    between atoms: _344  and  _345
REMARK  138  A    between atoms: _350  and  _352
REMARK  139  A    between atoms: _352  and  _353
REMARK  140  A    between atoms: _352  and  _355
REMARK  141  A    between atoms: _355  and  _356
REMARK  142  A    between atoms: _361  and  _363
REMARK  143  A    between atoms: _363  and  _364
REMARK  144  A    between atoms: _363  and  _366
REMARK  145  A    between atoms: _366  and  _367
REMARK  146  A    between atoms: _367  and  _368
REMARK  147  A    between atoms: _371  and  _373
REMARK  148  A    between atoms: _373  and  _374
REMARK  149  A    between atoms: _376  and  _378
REMARK  150  A    between atoms: _378  and  _379
REMARK  151  A    between atoms: _378  and  _381
REMARK  152  A    between atoms: _381  and  _382
REMARK  153  A    between atoms: _384  and  _386
REMARK  154  A    between atoms: _386  and  _387
REMARK  155  A    between atoms: _386  and  _389
REMARK  156  A    between atoms: _389  and  _390
REMARK  157  A    between atoms: _395  and  _396
REMARK  158  A    between atoms: _398  and  _400
REMARK  159  A    between atoms: _400  and  _401
REMARK  160  A    between atoms: _400  and  _403
REMARK  161  A    between atoms: _403  and  _404
REMARK  162  A    between atoms: _409  and  _411
REMARK  163  A    between atoms: _411  and  _412
REMARK  164  A    between atoms: _414  and  _416
REMARK  165  A    between atoms: _416  and  _417
REMARK  166  A    between atoms: _416  and  _419
REMARK  167  A    between atoms: _419  and  _420
REMARK  168  A    between atoms: _425  and  _427
REMARK  169  A    between atoms: _427  and  _428
REMARK  170  A    between atoms: _427  and  _430
REMARK  171  A    between atoms: _430  and  _431
REMARK  172  A    between atoms: _441  and  _443
REMARK  173  A    between atoms: _443  and  _444
REMARK  174  A    between atoms: _443  and  _446
REMARK  175  A    between atoms: _446  and  _447
REMARK  176  A    between atoms: _452  and  _454
REMARK  177  A    between atoms: _454  and  _455
REMARK  178  A    between atoms: _454  and  _457
REMARK  179  A    between atoms: _457  and  _458
REMARK  180  A    between atoms: _458  and  _459
REMARK  181  A    between atoms: _459  and  _460
REMARK  182  A    between atoms: _460  and  _461
REMARK  183  A    between atoms: _465  and  _467
REMARK  184  A    between atoms: _467  and  _468
REMARK  185  A    between atoms: _467  and  _470
REMARK  186  A    between atoms: _470  and  _471
REMARK  187  A    between atoms: _477  and  _479
REMARK  188  A    between atoms: _479  and  _480
REMARK  189  A    between atoms: _482  and  _484
REMARK  190  A    between atoms: _484  and  _485
REMARK  191  A    between atoms: _484  and  _487
REMARK  192  A    between atoms: _487  and  _488
REMARK  193  A    between atoms: _490  and  _492
REMARK  194  A    between atoms: _492  and  _493
REMARK  195  A    between atoms: _492  and  _495
REMARK  196  A    between atoms: _495  and  _496
REMARK  197  A    between atoms: _496  and  _497
REMARK  198  A    between atoms: _497  and  _498
REMARK  199  A    between atoms: _498  and  _499
REMARK  200  A    between atoms: _503  and  _505
REMARK  201  A    between atoms: _505  and  _506
REMARK  202  A    between atoms: _505  and  _508
REMARK  203  A    between atoms: _508  and  _509
REMARK  204  A    between atoms: _514  and  _516
REMARK  205  A    between atoms: _516  and  _517
REMARK  206  A    between atoms: _516  and  _519
REMARK  207  A    between atoms: _519  and  _520
REMARK  208  A    between atoms: _520  and  _521
REMARK  209  A    between atoms: _521  and  _522
REMARK  210  A    between atoms: _531  and  _533
REMARK  211  A    between atoms: _533  and  _534
REMARK  212  A    between atoms: _533  and  _536
REMARK  213  A    between atoms: _536  and  _537
REMARK  214  A    between atoms: _537  and  _538
REMARK  215  A    between atoms: _543  and  _545
REMARK  216  A    between atoms: _545  and  _546
REMARK  217  A    between atoms: _545  and  _548
REMARK  218  A    between atoms: _548  and  _549
REMARK  219  A    between atoms: _549  and  _550
REMARK  220  A    between atoms: _555  and  _557
REMARK  221  A    between atoms: _557  and  _558
REMARK  222  A    between atoms: _557  and  _560
REMARK  223  A    between atoms: _560  and  _561
REMARK  224  A    between atoms: _564  and  _566
REMARK  225  A    between atoms: _566  and  _567
REMARK  226  A    between atoms: _566  and  _569
REMARK  227  A    between atoms: _569  and  _570
REMARK  228  A    between atoms: _570  and  _571
REMARK  229  A    between atoms: _573  and  _575
REMARK  230  A    between atoms: _575  and  _576
REMARK  231  A    between atoms: _575  and  _578
REMARK  232  A    between atoms: _578  and  _579
REMARK  233  A    between atoms: _581  and  _583
REMARK  234  A    between atoms: _583  and  _584
REMARK  235  A    between atoms: _586  and  _588
REMARK  236  A    between atoms: _588  and  _589
REMARK  237  A    between atoms: _588  and  _591
REMARK  238  A    between atoms: _591  and  _592
REMARK  239  A    between atoms: _597  and  _598
REMARK  240  A    between atoms: _600  and  _602
REMARK  241  A    between atoms: _602  and  _603
REMARK  242  A    between atoms: _602  and  _605
REMARK  243  A    between atoms: _605  and  _606
REMARK  244  A    between atoms: _616  and  _618
REMARK  245  A    between atoms: _618  and  _619
REMARK  246  A    between atoms: _618  and  _621
REMARK  247  A    between atoms: _621  and  _622
REMARK  248  A    between atoms: _625  and  _627
REMARK  249  A    between atoms: _627  and  _628
REMARK  250  A    between atoms: _631  and  _633
REMARK  251  A    between atoms: _633  and  _634
REMARK  252  A    between atoms: _637  and  _639
REMARK  253  A    between atoms: _639  and  _640
REMARK  254  A    between atoms: _639  and  _642
REMARK  255  A    between atoms: _642  and  _643
REMARK  256  A    between atoms: _647  and  _648
REMARK                            x       y       z     vdW  Elec       q    Type
REMARK                         _______ _______ _______ _____ _____    ______ ____
ROOT
ATOM      1  O   HOH     1      35.624  66.883  16.299  0.00  0.00    +0.000 OA
ENDROOT
TORSDOF 0
REMARK  Name = ../refined-set-2016/4uac/4uac_pocket.pdb
REMARK  256 active torsions:
REMARK  status: ('A' for Active; 'I' for Inactive)
REMARK    1  A    between atoms: _1  and  _3
REMARK    2  A    between atoms: _3  and  _4
REMARK    3  A    between atoms: _7  and  _8
REMARK    4  A    between atoms: _13  and  _15
REMARK    5  A    between atoms: _15  and  _16
REMARK    6  A    between atoms: _19  and  _21
REMARK    7  A    between atoms: _21  and  _22
REMARK    8  A    between atoms: _21  and  _24
REMARK    9  A    between atoms: _24  and  _25
REMARK   10  A    between atoms: _25  and  _26
REMARK   11  A    between atoms: _29  and  _31
REMARK   12  A    between atoms: _31  and  _32
REMARK   13  A    between atoms: _31  and  _34
REMARK   14  A    between atoms: _34  and  _35
REMARK   15  A    between atoms: _38  and  _40
REMARK   16  A    between atoms: _40  and  _41
REMARK   17  A    between atoms: _40  and  _43
REMARK   18  A    between atoms: _43  and  _44
REMARK   19  A    between atoms: _46  and  _48
REMARK   20  A    between atoms: _48  and  _49
REMARK   21  A    between atoms: _48  and  _51
REMARK   22  A    between atoms: _51  and  _52
REMARK   23  A    between atoms: _54  and  _56
REMARK   24  A    between atoms: _56  and  _57
REMARK   25  A    between atoms: _56  and  _59
REMARK   26  A    between atoms: _59  and  _60
REMARK   27  A    between atoms: _60  and  _61
REMARK   28  A    between atoms: _64  and  _66
REMARK   29  A    between atoms: _66  and  _67
REMARK   30  A    between atoms: _66  and  _69
REMARK   31  A    between atoms: _69  and  _70
REMARK   32  A    between atoms: _72  and  _74
REMARK   33  A    between atoms: _74  and  _75
REMARK   34  A    between atoms: _74  and  _77
REMARK   35  A    between atoms: _77  and  _78
REMARK   36  A    between atoms: _81  and  _83
REMARK   37  A    between atoms: _83  and  _84
REMARK   38  A    between atoms: _87  and  _89
REMARK   39  A    between atoms: _89  and  _90
REMARK   40  A    between atoms: _89  and  _92
REMARK   41  A    between atoms: _92  and  _93
REMARK   42  A    between atoms: _93  and  _94
REMARK   43  A    between atoms: _94  and  _95
REMARK   44  A    between atoms: _95  and  _96
REMARK   45  A    between atoms: _100  and  _102
REMARK   46  A    between atoms: _102  and  _103
REMARK   47  A    between atoms: _102  and  _105
REMARK   48  A    between atoms: _105  and  _106
REMARK   49  A    between atoms: _109  and  _111
REMARK   50  A    between atoms: _111  and  _112
REMARK   51  A    between atoms: _111  and  _114
REMARK   52  A    between atoms: _117  and  _119
REMARK   53  A    between atoms: _119  and  _120
REMARK   54  A    between atoms: _119  and  _122
REMARK   55  A    between atoms: _122  and  _123
REMARK   56  A    between atoms: _126  and  _128
REMARK   57  A    between atoms: _128  and  _129
REMARK   58  A    between atoms: _128  and  _131
REMARK   59  A    between atoms: _131  and  _132
REMARK   60  A    between atoms: _132  and  _133
REMARK   61  A    between atoms: _135  and  _137
REMARK   62  A    between atoms: _137  and  _138
REMARK   63  A    between atoms: _137  and  _140
REMARK   64  A    between atoms: _140  and  _141
REMARK   65  A    between atoms: _147  and  _149
REMARK   66  A    between atoms: _149  and  _150
REMARK   67  A    between atoms: _153  and  _155
REMARK   68  A    between atoms: _155  and  _156
REMARK   69  A    between atoms: _155  and  _158
REMARK   70  A    between atoms: _158  and  _159
REMARK   71  A    between atoms: _164  and  _166
REMARK   72  A    between atoms: _166  and  _167
REMARK   73  A    between atoms: _166  and  _169
REMARK   74  A    between atoms: _169  and  _170
REMARK   75  A    between atoms: _173  and  _175
REMARK   76  A    between atoms: _175  and  _176
REMARK   77  A    between atoms: _175  and  _178
REMARK   78  A    between atoms: _178  and  _179
REMARK   79  A    between atoms: _179  and  _180
REMARK   80  A    between atoms: _185  and  _187
REMARK   81  A    between atoms: _187  and  _188
REMARK   82  A    between atoms: _187  and  _190
REMARK   83  A    between atoms: _190  and  _191
REMARK   84  A    between atoms: _195  and  _196
REMARK   85  A    between atoms: _201  and  _203
REMARK   86  A    between atoms: _203  and  _204
REMARK   87  A    between atoms: _203  and  _206
REMARK   88  A    between atoms: _206  and  _207
REMARK   89  A    between atoms: _212  and  _213
REMARK   90  A    between atoms: _215  and  _217
REMARK   91  A    between atoms: _217  and  _218
REMARK   92  A    between atoms: _217  and  _220
REMARK   93  A    between atoms: _220  and  _221
REMARK   94  A    between atoms: _224  and  _226
REMARK   95  A    between atoms: _226  and  _227
REMARK   96  A    between atoms: _226  and  _229
REMARK   97  A    between atoms: _229  and  _230
REMARK   98  A    between atoms: _232  and  _234
REMARK   99  A    between atoms: _234  and  _235
REMARK  100  A    between atoms: _234  and  _237
REMARK  101  A    between atoms: _237  and  _238
REMARK  102  A    between atoms: _243  and  _245
REMARK  103  A    between atoms: _245  and  _246
REMARK  104  A    between atoms: _245  and  _248
REMARK  105  A    between atoms: _248  and  _249
REMARK  106  A    between atoms: _252  and  _254
REMARK  107  A    between atoms: _254  and  _255
REMARK  108  A    between atoms: _254  and  _257
REMARK  109  A    between atoms: _257  and  _258
REMARK  110  A    between atoms: _269  and  _270
REMARK  111  A    between atoms: _275  and  _277
REMARK  112  A    between atoms: _277  and  _278
REMARK  113  A    between atoms: _277  and  _280
REMARK  114  A    between atoms: _280  and  _281
REMARK  115  A    between atoms: _284  and  _286
REMARK  116  A    between atoms: _286  and  _287
REMARK  117  A    between atoms: _286  and  _289
REMARK  118  A    between atoms: _289  and  _290
REMARK  119  A    between atoms: _295  and  _297
REMARK  120  A    between atoms: _297  and  _298
REMARK  121  A    between atoms: _300  and  _302
REMARK  122  A    between atoms: _302  and  _303
REMARK  123  A    between atoms: _302  and  _305
REMARK  124  A    between atoms: _305  and  _306
REMARK  125  A    between atoms: _316  and  _318
REMARK  126  A    between atoms: _318  and  _319
REMARK  127  A    between atoms: _318  and  _321
REMARK  128  A    between atoms: _321  and  _322
REMARK  129  A    between atoms: _327  and  _328
REMARK  130  A    between atoms: _330  and  _332
REMARK  131  A    between atoms: _332  and  _333
REMARK  132  A    between atoms: _332  and  _335
REMARK  133  A    between atoms: _335  and  _336
REMARK  134  A    between atoms: _339  and  _341
REMARK  135  A    between atoms: _341  and  _342
REMARK  136  A    between atoms: _341  and  _344
REMARK  137  A    between atoms: _344  and  _345
REMARK  138  A    between atoms: _350  and  _352
REMARK  139  A    between atoms: _352  and  _353
REMARK  140  A    between atoms: _352  and  _355
REMARK  141  A    between atoms: _355  and  _356
REMARK  142  A    between atoms: _361  and  _363
REMARK  143  A    between atoms: _363  and  _364
REMARK  144  A    between atoms: _363  and  _366
REMARK  145  A    between atoms: _366  and  _367
REMARK  146  A    between atoms: _367  and  _368
REMARK  147  A    between atoms: _371  and  _373
REMARK  148  A    between atoms: _373  and  _374
REMARK  149  A    between atoms: _376  and  _378
REMARK  150  A    between atoms: _378  and  _379
REMARK  151  A    between atoms: _378  and  _381
REMARK  152  A    between atoms: _381  and  _382
REMARK  153  A    between atoms: _384  and  _386
REMARK  154  A    between atoms: _386  and  _387
REMARK  155  A    between atoms: _386  and  _389
REMARK  156  A    between atoms: _389  and  _390
REMARK  157  A    between atoms: _395  and  _396
REMARK  158  A    between atoms: _398  and  _400
REMARK  159  A    between atoms: _400  and  _401
REMARK  160  A    between atoms: _400  and  _403
REMARK  161  A    between atoms: _403  and  _404
REMARK  162  A    between atoms: _409  and  _411
REMARK  163  A    between atoms: _411  and  _412
REMARK  164  A    between atoms: _414  and  _416
REMARK  165  A    between atoms: _416  and  _417
REMARK  166  A    between atoms: _416  and  _419
REMARK  167  A    between atoms: _419  and  _420
REMARK  168  A    between atoms: _425  and  _427
REMARK  169  A    between atoms: _427  and  _428
REMARK  170  A    between atoms: _427  and  _430
REMARK  171  A    between atoms: _430  and  _431
REMARK  172  A    between atoms: _441  and  _443
REMARK  173  A    between atoms: _443  and  _444
REMARK  174  A    between atoms: _443  and  _446
REMARK  175  A    between atoms: _446  and  _447
REMARK  176  A    between atoms: _452  and  _454
REMARK  177  A    between atoms: _454  and  _455
REMARK  178  A    between atoms: _454  and  _457
REMARK  179  A    between atoms: _457  and  _458
REMARK  180  A    between atoms: _458  and  _459
REMARK  181  A    between atoms: _459  and  _460
REMARK  182  A    between atoms: _460  and  _461
REMARK  183  A    between atoms: _465  and  _467
REMARK  184  A    between atoms: _467  and  _468
REMARK  185  A    between atoms: _467  and  _470
REMARK  186  A    between atoms: _470  and  _471
REMARK  187  A    between atoms: _477  and  _479
REMARK  188  A    between atoms: _479  and  _480
REMARK  189  A    between atoms: _482  and  _484
REMARK  190  A    between atoms: _484  and  _485
REMARK  191  A    between atoms: _484  and  _487
REMARK  192  A    between atoms: _487  and  _488
REMARK  193  A    between atoms: _490  and  _492
REMARK  194  A    between atoms: _492  and  _493
REMARK  195  A    between atoms: _492  and  _495
REMARK  196  A    between atoms: _495  and  _496
REMARK  197  A    between atoms: _496  and  _497
REMARK  198  A    between atoms: _497  and  _498
REMARK  199  A    between atoms: _498  and  _499
REMARK  200  A    between atoms: _503  and  _505
REMARK  201  A    between atoms: _505  and  _506
REMARK  202  A    between atoms: _505  and  _508
REMARK  203  A    between atoms: _508  and  _509
REMARK  204  A    between atoms: _514  and  _516
REMARK  205  A    between atoms: _516  and  _517
REMARK  206  A    between atoms: _516  and  _519
REMARK  207  A    between atoms: _519  and  _520
REMARK  208  A    between atoms: _520  and  _521
REMARK  209  A    between atoms: _521  and  _522
REMARK  210  A    between atoms: _531  and  _533
REMARK  211  A    between atoms: _533  and  _534
REMARK  212  A    between atoms: _533  and  _536
REMARK  213  A    between atoms: _536  and  _537
REMARK  214  A    between atoms: _537  and  _538
REMARK  215  A    between atoms: _543  and  _545
REMARK  216  A    between atoms: _545  and  _546
REMARK  217  A    between atoms: _545  and  _548
REMARK  218  A    between atoms: _548  and  _549
REMARK  219  A    between atoms: _549  and  _550
REMARK  220  A    between atoms: _555  and  _557
REMARK  221  A    between atoms: _557  and  _558
REMARK  222  A    between atoms: _557  and  _560
REMARK  223  A    between atoms: _560  and  _561
REMARK  224  A    between atoms: _564  and  _566
REMARK  225  A    between atoms: _566  and  _567
REMARK  226  A    between atoms: _566  and  _569
REMARK  227  A    between atoms: _569  and  _570
REMARK  228  A    between atoms: _570  and  _571
REMARK  229  A    between atoms: _573  and  _575
REMARK  230  A    between atoms: _575  and  _576
REMARK  231  A    between atoms: _575  and  _578
REMARK  232  A    between atoms: _578  and  _579
REMARK  233  A    between atoms: _581  and  _583
REMARK  234  A    between atoms: _583  and  _584
REMARK  235  A    between atoms: _586  and  _588
REMARK  236  A    between atoms: _588  and  _589
REMARK  237  A    between atoms: _588  and  _591
REMARK  238  A    between atoms: _591  and  _592
REMARK  239  A    between atoms: _597  and  _598
REMARK  240  A    between atoms: _600  and  _602
REMARK  241  A    between atoms: _602  and  _603
REMARK  242  A    between atoms: _602  and  _605
REMARK  243  A    between atoms: _605  and  _606
REMARK  244  A    between atoms: _616  and  _618
REMARK  245  A    between atoms: _618  and  _619
REMARK  246  A    between atoms: _618  and  _621
REMARK  247  A    between atoms: _621  and  _622
REMARK  248  A    between atoms: _625  and  _627
REMARK  249  A    between atoms: _627  and  _628
REMARK  250  A    between atoms: _631  and  _633
REMARK  251  A    between atoms: _633  and  _634
REMARK  252  A    between atoms: _637  and  _639
REMARK  253  A    between atoms: _639  and  _640
REMARK  254  A    between atoms: _639  and  _642
REMARK  255  A    between atoms: _642  and  _643
REMARK  256  A    between atoms: _647  and  _648
REMARK                            x       y       z     vdW  Elec       q    Type
REMARK                         _______ _______ _______ _____ _____    ______ ____
ROOT
ATOM      1  O   HOH     1      25.063  61.017  27.738  0.00  0.00    +0.000 OA
ENDROOT
TORSDOF 0
REMARK  Name = ../refined-set-2016/4uac/4uac_pocket.pdb
REMARK  256 active torsions:
REMARK  status: ('A' for Active; 'I' for Inactive)
REMARK    1  A    between atoms: _1  and  _3
REMARK    2  A    between atoms: _3  and  _4
REMARK    3  A    between atoms: _7  and  _8
REMARK    4  A    between atoms: _13  and  _15
REMARK    5  A    between atoms: _15  and  _16
REMARK    6  A    between atoms: _19  and  _21
REMARK    7  A    between atoms: _21  and  _22
REMARK    8  A    between atoms: _21  and  _24
REMARK    9  A    between atoms: _24  and  _25
REMARK   10  A    between atoms: _25  and  _26
REMARK   11  A    between atoms: _29  and  _31
REMARK   12  A    between atoms: _31  and  _32
REMARK   13  A    between atoms: _31  and  _34
REMARK   14  A    between atoms: _34  and  _35
REMARK   15  A    between atoms: _38  and  _40
REMARK   16  A    between atoms: _40  and  _41
REMARK   17  A    between atoms: _40  and  _43
REMARK   18  A    between atoms: _43  and  _44
REMARK   19  A    between atoms: _46  and  _48
REMARK   20  A    between atoms: _48  and  _49
REMARK   21  A    between atoms: _48  and  _51
REMARK   22  A    between atoms: _51  and  _52
REMARK   23  A    between atoms: _54  and  _56
REMARK   24  A    between atoms: _56  and  _57
REMARK   25  A    between atoms: _56  and  _59
REMARK   26  A    between atoms: _59  and  _60
REMARK   27  A    between atoms: _60  and  _61
REMARK   28  A    between atoms: _64  and  _66
REMARK   29  A    between atoms: _66  and  _67
REMARK   30  A    between atoms: _66  and  _69
REMARK   31  A    between atoms: _69  and  _70
REMARK   32  A    between atoms: _72  and  _74
REMARK   33  A    between atoms: _74  and  _75
REMARK   34  A    between atoms: _74  and  _77
REMARK   35  A    between atoms: _77  and  _78
REMARK   36  A    between atoms: _81  and  _83
REMARK   37  A    between atoms: _83  and  _84
REMARK   38  A    between atoms: _87  and  _89
REMARK   39  A    between atoms: _89  and  _90
REMARK   40  A    between atoms: _89  and  _92
REMARK   41  A    between atoms: _92  and  _93
REMARK   42  A    between atoms: _93  and  _94
REMARK   43  A    between atoms: _94  and  _95
REMARK   44  A    between atoms: _95  and  _96
REMARK   45  A    between atoms: _100  and  _102
REMARK   46  A    between atoms: _102  and  _103
REMARK   47  A    between atoms: _102  and  _105
REMARK   48  A    between atoms: _105  and  _106
REMARK   49  A    between atoms: _109  and  _111
REMARK   50  A    between atoms: _111  and  _112
REMARK   51  A    between atoms: _111  and  _114
REMARK   52  A    between atoms: _117  and  _119
REMARK   53  A    between atoms: _119  and  _120
REMARK   54  A    between atoms: _119  and  _122
REMARK   55  A    between atoms: _122  and  _123
REMARK   56  A    between atoms: _126  and  _128
REMARK   57  A    between atoms: _128  and  _129
REMARK   58  A    between atoms: _128  and  _131
REMARK   59  A    between atoms: _131  and  _132
REMARK   60  A    between atoms: _132  and  _133
REMARK   61  A    between atoms: _135  and  _137
REMARK   62  A    between atoms: _137  and  _138
REMARK   63  A    between atoms: _137  and  _140
REMARK   64  A    between atoms: _140  and  _141
REMARK   65  A    between atoms: _147  and  _149
REMARK   66  A    between atoms: _149  and  _150
REMARK   67  A    between atoms: _153  and  _155
REMARK   68  A    between atoms: _155  and  _156
REMARK   69  A    between atoms: _155  and  _158
REMARK   70  A    between atoms: _158  and  _159
REMARK   71  A    between atoms: _164  and  _166
REMARK   72  A    between atoms: _166  and  _167
REMARK   73  A    between atoms: _166  and  _169
REMARK   74  A    between atoms: _169  and  _170
REMARK   75  A    between atoms: _173  and  _175
REMARK   76  A    between atoms: _175  and  _176
REMARK   77  A    between atoms: _175  and  _178
REMARK   78  A    between atoms: _178  and  _179
REMARK   79  A    between atoms: _179  and  _180
REMARK   80  A    between atoms: _185  and  _187
REMARK   81  A    between atoms: _187  and  _188
REMARK   82  A    between atoms: _187  and  _190
REMARK   83  A    between atoms: _190  and  _191
REMARK   84  A    between atoms: _195  and  _196
REMARK   85  A    between atoms: _201  and  _203
REMARK   86  A    between atoms: _203  and  _204
REMARK   87  A    between atoms: _203  and  _206
REMARK   88  A    between atoms: _206  and  _207
REMARK   89  A    between atoms: _212  and  _213
REMARK   90  A    between atoms: _215  and  _217
REMARK   91  A    between atoms: _217  and  _218
REMARK   92  A    between atoms: _217  and  _220
REMARK   93  A    between atoms: _220  and  _221
REMARK   94  A    between atoms: _224  and  _226
REMARK   95  A    between atoms: _226  and  _227
REMARK   96  A    between atoms: _226  and  _229
REMARK   97  A    between atoms: _229  and  _230
REMARK   98  A    between atoms: _232  and  _234
REMARK   99  A    between atoms: _234  and  _235
REMARK  100  A    between atoms: _234  and  _237
REMARK  101  A    between atoms: _237  and  _238
REMARK  102  A    between atoms: _243  and  _245
REMARK  103  A    between atoms: _245  and  _246
REMARK  104  A    between atoms: _245  and  _248
REMARK  105  A    between atoms: _248  and  _249
REMARK  106  A    between atoms: _252  and  _254
REMARK  107  A    between atoms: _254  and  _255
REMARK  108  A    between atoms: _254  and  _257
REMARK  109  A    between atoms: _257  and  _258
REMARK  110  A    between atoms: _269  and  _270
REMARK  111  A    between atoms: _275  and  _277
REMARK  112  A    between atoms: _277  and  _278
REMARK  113  A    between atoms: _277  and  _280
REMARK  114  A    between atoms: _280  and  _281
REMARK  115  A    between atoms: _284  and  _286
REMARK  116  A    between atoms: _286  and  _287
REMARK  117  A    between atoms: _286  and  _289
REMARK  118  A    between atoms: _289  and  _290
REMARK  119  A    between atoms: _295  and  _297
REMARK  120  A    between atoms: _297  and  _298
REMARK  121  A    between atoms: _300  and  _302
REMARK  122  A    between atoms: _302  and  _303
REMARK  123  A    between atoms: _302  and  _305
REMARK  124  A    between atoms: _305  and  _306
REMARK  125  A    between atoms: _316  and  _318
REMARK  126  A    between atoms: _318  and  _319
REMARK  127  A    between atoms: _318  and  _321
REMARK  128  A    between atoms: _321  and  _322
REMARK  129  A    between atoms: _327  and  _328
REMARK  130  A    between atoms: _330  and  _332
REMARK  131  A    between atoms: _332  and  _333
REMARK  132  A    between atoms: _332  and  _335
REMARK  133  A    between atoms: _335  and  _336
REMARK  134  A    between atoms: _339  and  _341
REMARK  135  A    between atoms: _341  and  _342
REMARK  136  A    between atoms: _341  and  _344
REMARK  137  A    between atoms: _344  and  _345
REMARK  138  A    between atoms: _350  and  _352
REMARK  139  A    between atoms: _352  and  _353
REMARK  140  A    between atoms: _352  and  _355
REMARK  141  A    between atoms: _355  and  _356
REMARK  142  A    between atoms: _361  and  _363
REMARK  143  A    between atoms: _363  and  _364
REMARK  144  A    between atoms: _363  and  _366
REMARK  145  A    between atoms: _366  and  _367
REMARK  146  A    between atoms: _367  and  _368
REMARK  147  A    between atoms: _371  and  _373
REMARK  148  A    between atoms: _373  and  _374
REMARK  149  A    between atoms: _376  and  _378
REMARK  150  A    between atoms: _378  and  _379
REMARK  151  A    between atoms: _378  and  _381
REMARK  152  A    between atoms: _381  and  _382
REMARK  153  A    between atoms: _384  and  _386
REMARK  154  A    between atoms: _386  and  _387
REMARK  155  A    between atoms: _386  and  _389
REMARK  156  A    between atoms: _389  and  _390
REMARK  157  A    between atoms: _395  and  _396
REMARK  158  A    between atoms: _398  and  _400
REMARK  159  A    between atoms: _400  and  _401
REMARK  160  A    between atoms: _400  and  _403
REMARK  161  A    between atoms: _403  and  _404
REMARK  162  A    between atoms: _409  and  _411
REMARK  163  A    between atoms: _411  and  _412
REMARK  164  A    between atoms: _414  and  _416
REMARK  165  A    between atoms: _416  and  _417
REMARK  166  A    between atoms: _416  and  _419
REMARK  167  A    between atoms: _419  and  _420
REMARK  168  A    between atoms: _425  and  _427
REMARK  169  A    between atoms: _427  and  _428
REMARK  170  A    between atoms: _427  and  _430
REMARK  171  A    between atoms: _430  and  _431
REMARK  172  A    between atoms: _441  and  _443
REMARK  173  A    between atoms: _443  and  _444
REMARK  174  A    between atoms: _443  and  _446
REMARK  175  A    between atoms: _446  and  _447
REMARK  176  A    between atoms: _452  and  _454
REMARK  177  A    between atoms: _454  and  _455
REMARK  178  A    between atoms: _454  and  _457
REMARK  179  A    between atoms: _457  and  _458
REMARK  180  A    between atoms: _458  and  _459
REMARK  181  A    between atoms: _459  and  _460
REMARK  182  A    between atoms: _460  and  _461
REMARK  183  A    between atoms: _465  and  _467
REMARK  184  A    between atoms: _467  and  _468
REMARK  185  A    between atoms: _467  and  _470
REMARK  186  A    between atoms: _470  and  _471
REMARK  187  A    between atoms: _477  and  _479
REMARK  188  A    between atoms: _479  and  _480
REMARK  189  A    between atoms: _482  and  _484
REMARK  190  A    between atoms: _484  and  _485
REMARK  191  A    between atoms: _484  and  _487
REMARK  192  A    between atoms: _487  and  _488
REMARK  193  A    between atoms: _490  and  _492
REMARK  194  A    between atoms: _492  and  _493
REMARK  195  A    between atoms: _492  and  _495
REMARK  196  A    between atoms: _495  and  _496
REMARK  197  A    between atoms: _496  and  _497
REMARK  198  A    between atoms: _497  and  _498
REMARK  199  A    between atoms: _498  and  _499
REMARK  200  A    between atoms: _503  and  _505
REMARK  201  A    between atoms: _505  and  _506
REMARK  202  A    between atoms: _505  and  _508
REMARK  203  A    between atoms: _508  and  _509
REMARK  204  A    between atoms: _514  and  _516
REMARK  205  A    between atoms: _516  and  _517
REMARK  206  A    between atoms: _516  and  _519
REMARK  207  A    between atoms: _519  and  _520
REMARK  208  A    between atoms: _520  and  _521
REMARK  209  A    between atoms: _521  and  _522
REMARK  210  A    between atoms: _531  and  _533
REMARK  211  A    between atoms: _533  and  _534
REMARK  212  A    between atoms: _533  and  _536
REMARK  213  A    between atoms: _536  and  _537
REMARK  214  A    between atoms: _537  and  _538
REMARK  215  A    between atoms: _543  and  _545
REMARK  216  A    between atoms: _545  and  _546
REMARK  217  A    between atoms: _545  and  _548
REMARK  218  A    between atoms: _548  and  _549
REMARK  219  A    between atoms: _549  and  _550
REMARK  220  A    between atoms: _555  and  _557
REMARK  221  A    between atoms: _557  and  _558
REMARK  222  A    between atoms: _557  and  _560
REMARK  223  A    between atoms: _560  and  _561
REMARK  224  A    between atoms: _564  and  _566
REMARK  225  A    between atoms: _566  and  _567
REMARK  226  A    between atoms: _566  and  _569
REMARK  227  A    between atoms: _569  and  _570
REMARK  228  A    between atoms: _570  and  _571
REMARK  229  A    between atoms: _573  and  _575
REMARK  230  A    between atoms: _575  and  _576
REMARK  231  A    between atoms: _575  and  _578
REMARK  232  A    between atoms: _578  and  _579
REMARK  233  A    between atoms: _581  and  _583
REMARK  234  A    between atoms: _583  and  _584
REMARK  235  A    between atoms: _586  and  _588
REMARK  236  A    between atoms: _588  and  _589
REMARK  237  A    between atoms: _588  and  _591
REMARK  238  A    between atoms: _591  and  _592
REMARK  239  A    between atoms: _597  and  _598
REMARK  240  A    between atoms: _600  and  _602
REMARK  241  A    between atoms: _602  and  _603
REMARK  242  A    between atoms: _602  and  _605
REMARK  243  A    between atoms: _605  and  _606
REMARK  244  A    between atoms: _616  and  _618
REMARK  245  A    between atoms: _618  and  _619
REMARK  246  A    between atoms: _618  and  _621
REMARK  247  A    between atoms: _621  and  _622
REMARK  248  A    between atoms: _625  and  _627
REMARK  249  A    between atoms: _627  and  _628
REMARK  250  A    between atoms: _631  and  _633
REMARK  251  A    between atoms: _633  and  _634
REMARK  252  A    between atoms: _637  and  _639
REMARK  253  A    between atoms: _639  and  _640
REMARK  254  A    between atoms: _639  and  _642
REMARK  255  A    between atoms: _642  and  _643
REMARK  256  A    between atoms: _647  and  _648
REMARK                            x       y       z     vdW  Elec       q    Type
REMARK                         _______ _______ _______ _____ _____    ______ ____
ROOT
ATOM      1  O   HOH     1      32.991  66.025  17.170  0.00  0.00    +0.000 OA
ENDROOT
TORSDOF 0
REMARK  Name = ../refined-set-2016/4uac/4uac_pocket.pdb
REMARK  256 active torsions:
REMARK  status: ('A' for Active; 'I' for Inactive)
REMARK    1  A    between atoms: _1  and  _3
REMARK    2  A    between atoms: _3  and  _4
REMARK    3  A    between atoms: _7  and  _8
REMARK    4  A    between atoms: _13  and  _15
REMARK    5  A    between atoms: _15  and  _16
REMARK    6  A    between atoms: _19  and  _21
REMARK    7  A    between atoms: _21  and  _22
REMARK    8  A    between atoms: _21  and  _24
REMARK    9  A    between atoms: _24  and  _25
REMARK   10  A    between atoms: _25  and  _26
REMARK   11  A    between atoms: _29  and  _31
REMARK   12  A    between atoms: _31  and  _32
REMARK   13  A    between atoms: _31  and  _34
REMARK   14  A    between atoms: _34  and  _35
REMARK   15  A    between atoms: _38  and  _40
REMARK   16  A    between atoms: _40  and  _41
REMARK   17  A    between atoms: _40  and  _43
REMARK   18  A    between atoms: _43  and  _44
REMARK   19  A    between atoms: _46  and  _48
REMARK   20  A    between atoms: _48  and  _49
REMARK   21  A    between atoms: _48  and  _51
REMARK   22  A    between atoms: _51  and  _52
REMARK   23  A    between atoms: _54  and  _56
REMARK   24  A    between atoms: _56  and  _57
REMARK   25  A    between atoms: _56  and  _59
REMARK   26  A    between atoms: _59  and  _60
REMARK   27  A    between atoms: _60  and  _61
REMARK   28  A    between atoms: _64  and  _66
REMARK   29  A    between atoms: _66  and  _67
REMARK   30  A    between atoms: _66  and  _69
REMARK   31  A    between atoms: _69  and  _70
REMARK   32  A    between atoms: _72  and  _74
REMARK   33  A    between atoms: _74  and  _75
REMARK   34  A    between atoms: _74  and  _77
REMARK   35  A    between atoms: _77  and  _78
REMARK   36  A    between atoms: _81  and  _83
REMARK   37  A    between atoms: _83  and  _84
REMARK   38  A    between atoms: _87  and  _89
REMARK   39  A    between atoms: _89  and  _90
REMARK   40  A    between atoms: _89  and  _92
REMARK   41  A    between atoms: _92  and  _93
REMARK   42  A    between atoms: _93  and  _94
REMARK   43  A    between atoms: _94  and  _95
REMARK   44  A    between atoms: _95  and  _96
REMARK   45  A    between atoms: _100  and  _102
REMARK   46  A    between atoms: _102  and  _103
REMARK   47  A    between atoms: _102  and  _105
REMARK   48  A    between atoms: _105  and  _106
REMARK   49  A    between atoms: _109  and  _111
REMARK   50  A    between atoms: _111  and  _112
REMARK   51  A    between atoms: _111  and  _114
REMARK   52  A    between atoms: _117  and  _119
REMARK   53  A    between atoms: _119  and  _120
REMARK   54  A    between atoms: _119  and  _122
REMARK   55  A    between atoms: _122  and  _123
REMARK   56  A    between atoms: _126  and  _128
REMARK   57  A    between atoms: _128  and  _129
REMARK   58  A    between atoms: _128  and  _131
REMARK   59  A    between atoms: _131  and  _132
REMARK   60  A    between atoms: _132  and  _133
REMARK   61  A    between atoms: _135  and  _137
REMARK   62  A    between atoms: _137  and  _138
REMARK   63  A    between atoms: _137  and  _140
REMARK   64  A    between atoms: _140  and  _141
REMARK   65  A    between atoms: _147  and  _149
REMARK   66  A    between atoms: _149  and  _150
REMARK   67  A    between atoms: _153  and  _155
REMARK   68  A    between atoms: _155  and  _156
REMARK   69  A    between atoms: _155  and  _158
REMARK   70  A    between atoms: _158  and  _159
REMARK   71  A    between atoms: _164  and  _166
REMARK   72  A    between atoms: _166  and  _167
REMARK   73  A    between atoms: _166  and  _169
REMARK   74  A    between atoms: _169  and  _170
REMARK   75  A    between atoms: _173  and  _175
REMARK   76  A    between atoms: _175  and  _176
REMARK   77  A    between atoms: _175  and  _178
REMARK   78  A    between atoms: _178  and  _179
REMARK   79  A    between atoms: _179  and  _180
REMARK   80  A    between atoms: _185  and  _187
REMARK   81  A    between atoms: _187  and  _188
REMARK   82  A    between atoms: _187  and  _190
REMARK   83  A    between atoms: _190  and  _191
REMARK   84  A    between atoms: _195  and  _196
REMARK   85  A    between atoms: _201  and  _203
REMARK   86  A    between atoms: _203  and  _204
REMARK   87  A    between atoms: _203  and  _206
REMARK   88  A    between atoms: _206  and  _207
REMARK   89  A    between atoms: _212  and  _213
REMARK   90  A    between atoms: _215  and  _217
REMARK   91  A    between atoms: _217  and  _218
REMARK   92  A    between atoms: _217  and  _220
REMARK   93  A    between atoms: _220  and  _221
REMARK   94  A    between atoms: _224  and  _226
REMARK   95  A    between atoms: _226  and  _227
REMARK   96  A    between atoms: _226  and  _229
REMARK   97  A    between atoms: _229  and  _230
REMARK   98  A    between atoms: _232  and  _234
REMARK   99  A    between atoms: _234  and  _235
REMARK  100  A    between atoms: _234  and  _237
REMARK  101  A    between atoms: _237  and  _238
REMARK  102  A    between atoms: _243  and  _245
REMARK  103  A    between atoms: _245  and  _246
REMARK  104  A    between atoms: _245  and  _248
REMARK  105  A    between atoms: _248  and  _249
REMARK  106  A    between atoms: _252  and  _254
REMARK  107  A    between atoms: _254  and  _255
REMARK  108  A    between atoms: _254  and  _257
REMARK  109  A    between atoms: _257  and  _258
REMARK  110  A    between atoms: _269  and  _270
REMARK  111  A    between atoms: _275  and  _277
REMARK  112  A    between atoms: _277  and  _278
REMARK  113  A    between atoms: _277  and  _280
REMARK  114  A    between atoms: _280  and  _281
REMARK  115  A    between atoms: _284  and  _286
REMARK  116  A    between atoms: _286  and  _287
REMARK  117  A    between atoms: _286  and  _289
REMARK  118  A    between atoms: _289  and  _290
REMARK  119  A    between atoms: _295  and  _297
REMARK  120  A    between atoms: _297  and  _298
REMARK  121  A    between atoms: _300  and  _302
REMARK  122  A    between atoms: _302  and  _303
REMARK  123  A    between atoms: _302  and  _305
REMARK  124  A    between atoms: _305  and  _306
REMARK  125  A    between atoms: _316  and  _318
REMARK  126  A    between atoms: _318  and  _319
REMARK  127  A    between atoms: _318  and  _321
REMARK  128  A    between atoms: _321  and  _322
REMARK  129  A    between atoms: _327  and  _328
REMARK  130  A    between atoms: _330  and  _332
REMARK  131  A    between atoms: _332  and  _333
REMARK  132  A    between atoms: _332  and  _335
REMARK  133  A    between atoms: _335  and  _336
REMARK  134  A    between atoms: _339  and  _341
REMARK  135  A    between atoms: _341  and  _342
REMARK  136  A    between atoms: _341  and  _344
REMARK  137  A    between atoms: _344  and  _345
REMARK  138  A    between atoms: _350  and  _352
REMARK  139  A    between atoms: _352  and  _353
REMARK  140  A    between atoms: _352  and  _355
REMARK  141  A    between atoms: _355  and  _356
REMARK  142  A    between atoms: _361  and  _363
REMARK  143  A    between atoms: _363  and  _364
REMARK  144  A    between atoms: _363  and  _366
REMARK  145  A    between atoms: _366  and  _367
REMARK  146  A    between atoms: _367  and  _368
REMARK  147  A    between atoms: _371  and  _373
REMARK  148  A    between atoms: _373  and  _374
REMARK  149  A    between atoms: _376  and  _378
REMARK  150  A    between atoms: _378  and  _379
REMARK  151  A    between atoms: _378  and  _381
REMARK  152  A    between atoms: _381  and  _382
REMARK  153  A    between atoms: _384  and  _386
REMARK  154  A    between atoms: _386  and  _387
REMARK  155  A    between atoms: _386  and  _389
REMARK  156  A    between atoms: _389  and  _390
REMARK  157  A    between atoms: _395  and  _396
REMARK  158  A    between atoms: _398  and  _400
REMARK  159  A    between atoms: _400  and  _401
REMARK  160  A    between atoms: _400  and  _403
REMARK  161  A    between atoms: _403  and  _404
REMARK  162  A    between atoms: _409  and  _411
REMARK  163  A    between atoms: _411  and  _412
REMARK  164  A    between atoms: _414  and  _416
REMARK  165  A    between atoms: _416  and  _417
REMARK  166  A    between atoms: _416  and  _419
REMARK  167  A    between atoms: _419  and  _420
REMARK  168  A    between atoms: _425  and  _427
REMARK  169  A    between atoms: _427  and  _428
REMARK  170  A    between atoms: _427  and  _430
REMARK  171  A    between atoms: _430  and  _431
REMARK  172  A    between atoms: _441  and  _443
REMARK  173  A    between atoms: _443  and  _444
REMARK  174  A    between atoms: _443  and  _446
REMARK  175  A    between atoms: _446  and  _447
REMARK  176  A    between atoms: _452  and  _454
REMARK  177  A    between atoms: _454  and  _455
REMARK  178  A    between atoms: _454  and  _457
REMARK  179  A    between atoms: _457  and  _458
REMARK  180  A    between atoms: _458  and  _459
REMARK  181  A    between atoms: _459  and  _460
REMARK  182  A    between atoms: _460  and  _461
REMARK  183  A    between atoms: _465  and  _467
REMARK  184  A    between atoms: _467  and  _468
REMARK  185  A    between atoms: _467  and  _470
REMARK  186  A    between atoms: _470  and  _471
REMARK  187  A    between atoms: _477  and  _479
REMARK  188  A    between atoms: _479  and  _480
REMARK  189  A    between atoms: _482  and  _484
REMARK  190  A    between atoms: _484  and  _485
REMARK  191  A    between atoms: _484  and  _487
REMARK  192  A    between atoms: _487  and  _488
REMARK  193  A    between atoms: _490  and  _492
REMARK  194  A    between atoms: _492  and  _493
REMARK  195  A    between atoms: _492  and  _495
REMARK  196  A    between atoms: _495  and  _496
REMARK  197  A    between atoms: _496  and  _497
REMARK  198  A    between atoms: _497  and  _498
REMARK  199  A    between atoms: _498  and  _499
REMARK  200  A    between atoms: _503  and  _505
REMARK  201  A    between atoms: _505  and  _506
REMARK  202  A    between atoms: _505  and  _508
REMARK  203  A    between atoms: _508  and  _509
REMARK  204  A    between atoms: _514  and  _516
REMARK  205  A    between atoms: _516  and  _517
REMARK  206  A    between atoms: _516  and  _519
REMARK  207  A    between atoms: _519  and  _520
REMARK  208  A    between atoms: _520  and  _521
REMARK  209  A    between atoms: _521  and  _522
REMARK  210  A    between atoms: _531  and  _533
REMARK  211  A    between atoms: _533  and  _534
REMARK  212  A    between atoms: _533  and  _536
REMARK  213  A    between atoms: _536  and  _537
REMARK  214  A    between atoms: _537  and  _538
REMARK  215  A    between atoms: _543  and  _545
REMARK  216  A    between atoms: _545  and  _546
REMARK  217  A    between atoms: _545  and  _548
REMARK  218  A    between atoms: _548  and  _549
REMARK  219  A    between atoms: _549  and  _550
REMARK  220  A    between atoms: _555  and  _557
REMARK  221  A    between atoms: _557  and  _558
REMARK  222  A    between atoms: _557  and  _560
REMARK  223  A    between atoms: _560  and  _561
REMARK  224  A    between atoms: _564  and  _566
REMARK  225  A    between atoms: _566  and  _567
REMARK  226  A    between atoms: _566  and  _569
REMARK  227  A    between atoms: _569  and  _570
REMARK  228  A    between atoms: _570  and  _571
REMARK  229  A    between atoms: _573  and  _575
REMARK  230  A    between atoms: _575  and  _576
REMARK  231  A    between atoms: _575  and  _578
REMARK  232  A    between atoms: _578  and  _579
REMARK  233  A    between atoms: _581  and  _583
REMARK  234  A    between atoms: _583  and  _584
REMARK  235  A    between atoms: _586  and  _588
REMARK  236  A    between atoms: _588  and  _589
REMARK  237  A    between atoms: _588  and  _591
REMARK  238  A    between atoms: _591  and  _592
REMARK  239  A    between atoms: _597  and  _598
REMARK  240  A    between atoms: _600  and  _602
REMARK  241  A    between atoms: _602  and  _603
REMARK  242  A    between atoms: _602  and  _605
REMARK  243  A    between atoms: _605  and  _606
REMARK  244  A    between atoms: _616  and  _618
REMARK  245  A    between atoms: _618  and  _619
REMARK  246  A    between atoms: _618  and  _621
REMARK  247  A    between atoms: _621  and  _622
REMARK  248  A    between atoms: _625  and  _627
REMARK  249  A    between atoms: _627  and  _628
REMARK  250  A    between atoms: _631  and  _633
REMARK  251  A    between atoms: _633  and  _634
REMARK  252  A    between atoms: _637  and  _639
REMARK  253  A    between atoms: _639  and  _640
REMARK  254  A    between atoms: _639  and  _642
REMARK  255  A    between atoms: _642  and  _643
REMARK  256  A    between atoms: _647  and  _648
REMARK                            x       y       z     vdW  Elec       q    Type
REMARK                         _______ _______ _______ _____ _____    ______ ____
ROOT
ATOM      1  O   HOH     1      18.991  71.903  21.836  0.00  0.00    +0.000 OA
ENDROOT
TORSDOF 0
REMARK  Name = ../refined-set-2016/4uac/4uac_pocket.pdb
REMARK  256 active torsions:
REMARK  status: ('A' for Active; 'I' for Inactive)
REMARK    1  A    between atoms: _1  and  _3
REMARK    2  A    between atoms: _3  and  _4
REMARK    3  A    between atoms: _7  and  _8
REMARK    4  A    between atoms: _13  and  _15
REMARK    5  A    between atoms: _15  and  _16
REMARK    6  A    between atoms: _19  and  _21
REMARK    7  A    between atoms: _21  and  _22
REMARK    8  A    between atoms: _21  and  _24
REMARK    9  A    between atoms: _24  and  _25
REMARK   10  A    between atoms: _25  and  _26
REMARK   11  A    between atoms: _29  and  _31
REMARK   12  A    between atoms: _31  and  _32
REMARK   13  A    between atoms: _31  and  _34
REMARK   14  A    between atoms: _34  and  _35
REMARK   15  A    between atoms: _38  and  _40
REMARK   16  A    between atoms: _40  and  _41
REMARK   17  A    between atoms: _40  and  _43
REMARK   18  A    between atoms: _43  and  _44
REMARK   19  A    between atoms: _46  and  _48
REMARK   20  A    between atoms: _48  and  _49
REMARK   21  A    between atoms: _48  and  _51
REMARK   22  A    between atoms: _51  and  _52
REMARK   23  A    between atoms: _54  and  _56
REMARK   24  A    between atoms: _56  and  _57
REMARK   25  A    between atoms: _56  and  _59
REMARK   26  A    between atoms: _59  and  _60
REMARK   27  A    between atoms: _60  and  _61
REMARK   28  A    between atoms: _64  and  _66
REMARK   29  A    between atoms: _66  and  _67
REMARK   30  A    between atoms: _66  and  _69
REMARK   31  A    between atoms: _69  and  _70
REMARK   32  A    between atoms: _72  and  _74
REMARK   33  A    between atoms: _74  and  _75
REMARK   34  A    between atoms: _74  and  _77
REMARK   35  A    between atoms: _77  and  _78
REMARK   36  A    between atoms: _81  and  _83
REMARK   37  A    between atoms: _83  and  _84
REMARK   38  A    between atoms: _87  and  _89
REMARK   39  A    between atoms: _89  and  _90
REMARK   40  A    between atoms: _89  and  _92
REMARK   41  A    between atoms: _92  and  _93
REMARK   42  A    between atoms: _93  and  _94
REMARK   43  A    between atoms: _94  and  _95
REMARK   44  A    between atoms: _95  and  _96
REMARK   45  A    between atoms: _100  and  _102
REMARK   46  A    between atoms: _102  and  _103
REMARK   47  A    between atoms: _102  and  _105
REMARK   48  A    between atoms: _105  and  _106
REMARK   49  A    between atoms: _109  and  _111
REMARK   50  A    between atoms: _111  and  _112
REMARK   51  A    between atoms: _111  and  _114
REMARK   52  A    between atoms: _117  and  _119
REMARK   53  A    between atoms: _119  and  _120
REMARK   54  A    between atoms: _119  and  _122
REMARK   55  A    between atoms: _122  and  _123
REMARK   56  A    between atoms: _126  and  _128
REMARK   57  A    between atoms: _128  and  _129
REMARK   58  A    between atoms: _128  and  _131
REMARK   59  A    between atoms: _131  and  _132
REMARK   60  A    between atoms: _132  and  _133
REMARK   61  A    between atoms: _135  and  _137
REMARK   62  A    between atoms: _137  and  _138
REMARK   63  A    between atoms: _137  and  _140
REMARK   64  A    between atoms: _140  and  _141
REMARK   65  A    between atoms: _147  and  _149
REMARK   66  A    between atoms: _149  and  _150
REMARK   67  A    between atoms: _153  and  _155
REMARK   68  A    between atoms: _155  and  _156
REMARK   69  A    between atoms: _155  and  _158
REMARK   70  A    between atoms: _158  and  _159
REMARK   71  A    between atoms: _164  and  _166
REMARK   72  A    between atoms: _166  and  _167
REMARK   73  A    between atoms: _166  and  _169
REMARK   74  A    between atoms: _169  and  _170
REMARK   75  A    between atoms: _173  and  _175
REMARK   76  A    between atoms: _175  and  _176
REMARK   77  A    between atoms: _175  and  _178
REMARK   78  A    between atoms: _178  and  _179
REMARK   79  A    between atoms: _179  and  _180
REMARK   80  A    between atoms: _185  and  _187
REMARK   81  A    between atoms: _187  and  _188
REMARK   82  A    between atoms: _187  and  _190
REMARK   83  A    between atoms: _190  and  _191
REMARK   84  A    between atoms: _195  and  _196
REMARK   85  A    between atoms: _201  and  _203
REMARK   86  A    between atoms: _203  and  _204
REMARK   87  A    between atoms: _203  and  _206
REMARK   88  A    between atoms: _206  and  _207
REMARK   89  A    between atoms: _212  and  _213
REMARK   90  A    between atoms: _215  and  _217
REMARK   91  A    between atoms: _217  and  _218
REMARK   92  A    between atoms: _217  and  _220
REMARK   93  A    between atoms: _220  and  _221
REMARK   94  A    between atoms: _224  and  _226
REMARK   95  A    between atoms: _226  and  _227
REMARK   96  A    between atoms: _226  and  _229
REMARK   97  A    between atoms: _229  and  _230
REMARK   98  A    between atoms: _232  and  _234
REMARK   99  A    between atoms: _234  and  _235
REMARK  100  A    between atoms: _234  and  _237
REMARK  101  A    between atoms: _237  and  _238
REMARK  102  A    between atoms: _243  and  _245
REMARK  103  A    between atoms: _245  and  _246
REMARK  104  A    between atoms: _245  and  _248
REMARK  105  A    between atoms: _248  and  _249
REMARK  106  A    between atoms: _252  and  _254
REMARK  107  A    between atoms: _254  and  _255
REMARK  108  A    between atoms: _254  and  _257
REMARK  109  A    between atoms: _257  and  _258
REMARK  110  A    between atoms: _269  and  _270
REMARK  111  A    between atoms: _275  and  _277
REMARK  112  A    between atoms: _277  and  _278
REMARK  113  A    between atoms: _277  and  _280
REMARK  114  A    between atoms: _280  and  _281
REMARK  115  A    between atoms: _284  and  _286
REMARK  116  A    between atoms: _286  and  _287
REMARK  117  A    between atoms: _286  and  _289
REMARK  118  A    between atoms: _289  and  _290
REMARK  119  A    between atoms: _295  and  _297
REMARK  120  A    between atoms: _297  and  _298
REMARK  121  A    between atoms: _300  and  _302
REMARK  122  A    between atoms: _302  and  _303
REMARK  123  A    between atoms: _302  and  _305
REMARK  124  A    between atoms: _305  and  _306
REMARK  125  A    between atoms: _316  and  _318
REMARK  126  A    between atoms: _318  and  _319
REMARK  127  A    between atoms: _318  and  _321
REMARK  128  A    between atoms: _321  and  _322
REMARK  129  A    between atoms: _327  and  _328
REMARK  130  A    between atoms: _330  and  _332
REMARK  131  A    between atoms: _332  and  _333
REMARK  132  A    between atoms: _332  and  _335
REMARK  133  A    between atoms: _335  and  _336
REMARK  134  A    between atoms: _339  and  _341
REMARK  135  A    between atoms: _341  and  _342
REMARK  136  A    between atoms: _341  and  _344
REMARK  137  A    between atoms: _344  and  _345
REMARK  138  A    between atoms: _350  and  _352
REMARK  139  A    between atoms: _352  and  _353
REMARK  140  A    between atoms: _352  and  _355
REMARK  141  A    between atoms: _355  and  _356
REMARK  142  A    between atoms: _361  and  _363
REMARK  143  A    between atoms: _363  and  _364
REMARK  144  A    between atoms: _363  and  _366
REMARK  145  A    between atoms: _366  and  _367
REMARK  146  A    between atoms: _367  and  _368
REMARK  147  A    between atoms: _371  and  _373
REMARK  148  A    between atoms: _373  and  _374
REMARK  149  A    between atoms: _376  and  _378
REMARK  150  A    between atoms: _378  and  _379
REMARK  151  A    between atoms: _378  and  _381
REMARK  152  A    between atoms: _381  and  _382
REMARK  153  A    between atoms: _384  and  _386
REMARK  154  A    between atoms: _386  and  _387
REMARK  155  A    between atoms: _386  and  _389
REMARK  156  A    between atoms: _389  and  _390
REMARK  157  A    between atoms: _395  and  _396
REMARK  158  A    between atoms: _398  and  _400
REMARK  159  A    between atoms: _400  and  _401
REMARK  160  A    between atoms: _400  and  _403
REMARK  161  A    between atoms: _403  and  _404
REMARK  162  A    between atoms: _409  and  _411
REMARK  163  A    between atoms: _411  and  _412
REMARK  164  A    between atoms: _414  and  _416
REMARK  165  A    between atoms: _416  and  _417
REMARK  166  A    between atoms: _416  and  _419
REMARK  167  A    between atoms: _419  and  _420
REMARK  168  A    between atoms: _425  and  _427
REMARK  169  A    between atoms: _427  and  _428
REMARK  170  A    between atoms: _427  and  _430
REMARK  171  A    between atoms: _430  and  _431
REMARK  172  A    between atoms: _441  and  _443
REMARK  173  A    between atoms: _443  and  _444
REMARK  174  A    between atoms: _443  and  _446
REMARK  175  A    between atoms: _446  and  _447
REMARK  176  A    between atoms: _452  and  _454
REMARK  177  A    between atoms: _454  and  _455
REMARK  178  A    between atoms: _454  and  _457
REMARK  179  A    between atoms: _457  and  _458
REMARK  180  A    between atoms: _458  and  _459
REMARK  181  A    between atoms: _459  and  _460
REMARK  182  A    between atoms: _460  and  _461
REMARK  183  A    between atoms: _465  and  _467
REMARK  184  A    between atoms: _467  and  _468
REMARK  185  A    between atoms: _467  and  _470
REMARK  186  A    between atoms: _470  and  _471
REMARK  187  A    between atoms: _477  and  _479
REMARK  188  A    between atoms: _479  and  _480
REMARK  189  A    between atoms: _482  and  _484
REMARK  190  A    between atoms: _484  and  _485
REMARK  191  A    between atoms: _484  and  _487
REMARK  192  A    between atoms: _487  and  _488
REMARK  193  A    between atoms: _490  and  _492
REMARK  194  A    between atoms: _492  and  _493
REMARK  195  A    between atoms: _492  and  _495
REMARK  196  A    between atoms: _495  and  _496
REMARK  197  A    between atoms: _496  and  _497
REMARK  198  A    between atoms: _497  and  _498
REMARK  199  A    between atoms: _498  and  _499
REMARK  200  A    between atoms: _503  and  _505
REMARK  201  A    between atoms: _505  and  _506
REMARK  202  A    between atoms: _505  and  _508
REMARK  203  A    between atoms: _508  and  _509
REMARK  204  A    between atoms: _514  and  _516
REMARK  205  A    between atoms: _516  and  _517
REMARK  206  A    between atoms: _516  and  _519
REMARK  207  A    between atoms: _519  and  _520
REMARK  208  A    between atoms: _520  and  _521
REMARK  209  A    between atoms: _521  and  _522
REMARK  210  A    between atoms: _531  and  _533
REMARK  211  A    between atoms: _533  and  _534
REMARK  212  A    between atoms: _533  and  _536
REMARK  213  A    between atoms: _536  and  _537
REMARK  214  A    between atoms: _537  and  _538
REMARK  215  A    between atoms: _543  and  _545
REMARK  216  A    between atoms: _545  and  _546
REMARK  217  A    between atoms: _545  and  _548
REMARK  218  A    between atoms: _548  and  _549
REMARK  219  A    between atoms: _549  and  _550
REMARK  220  A    between atoms: _555  and  _557
REMARK  221  A    between atoms: _557  and  _558
REMARK  222  A    between atoms: _557  and  _560
REMARK  223  A    between atoms: _560  and  _561
REMARK  224  A    between atoms: _564  and  _566
REMARK  225  A    between atoms: _566  and  _567
REMARK  226  A    between atoms: _566  and  _569
REMARK  227  A    between atoms: _569  and  _570
REMARK  228  A    between atoms: _570  and  _571
REMARK  229  A    between atoms: _573  and  _575
REMARK  230  A    between atoms: _575  and  _576
REMARK  231  A    between atoms: _575  and  _578
REMARK  232  A    between atoms: _578  and  _579
REMARK  233  A    between atoms: _581  and  _583
REMARK  234  A    between atoms: _583  and  _584
REMARK  235  A    between atoms: _586  and  _588
REMARK  236  A    between atoms: _588  and  _589
REMARK  237  A    between atoms: _588  and  _591
REMARK  238  A    between atoms: _591  and  _592
REMARK  239  A    between atoms: _597  and  _598
REMARK  240  A    between atoms: _600  and  _602
REMARK  241  A    between atoms: _602  and  _603
REMARK  242  A    between atoms: _602  and  _605
REMARK  243  A    between atoms: _605  and  _606
REMARK  244  A    between atoms: _616  and  _618
REMARK  245  A    between atoms: _618  and  _619
REMARK  246  A    between atoms: _618  and  _621
REMARK  247  A    between atoms: _621  and  _622
REMARK  248  A    between atoms: _625  and  _627
REMARK  249  A    between atoms: _627  and  _628
REMARK  250  A    between atoms: _631  and  _633
REMARK  251  A    between atoms: _633  and  _634
REMARK  252  A    between atoms: _637  and  _639
REMARK  253  A    between atoms: _639  and  _640
REMARK  254  A    between atoms: _639  and  _642
REMARK  255  A    between atoms: _642  and  _643
REMARK  256  A    between atoms: _647  and  _648
REMARK                            x       y       z     vdW  Elec       q    Type
REMARK                         _______ _______ _______ _____ _____    ______ ____
ROOT
ATOM      1  O   HOH     1      20.087  61.267  26.033  0.00  0.00    +0.000 OA
ENDROOT
TORSDOF 0
REMARK  Name = ../refined-set-2016/4uac/4uac_pocket.pdb
REMARK  256 active torsions:
REMARK  status: ('A' for Active; 'I' for Inactive)
REMARK    1  A    between atoms: _1  and  _3
REMARK    2  A    between atoms: _3  and  _4
REMARK    3  A    between atoms: _7  and  _8
REMARK    4  A    between atoms: _13  and  _15
REMARK    5  A    between atoms: _15  and  _16
REMARK    6  A    between atoms: _19  and  _21
REMARK    7  A    between atoms: _21  and  _22
REMARK    8  A    between atoms: _21  and  _24
REMARK    9  A    between atoms: _24  and  _25
REMARK   10  A    between atoms: _25  and  _26
REMARK   11  A    between atoms: _29  and  _31
REMARK   12  A    between atoms: _31  and  _32
REMARK   13  A    between atoms: _31  and  _34
REMARK   14  A    between atoms: _34  and  _35
REMARK   15  A    between atoms: _38  and  _40
REMARK   16  A    between atoms: _40  and  _41
REMARK   17  A    between atoms: _40  and  _43
REMARK   18  A    between atoms: _43  and  _44
REMARK   19  A    between atoms: _46  and  _48
REMARK   20  A    between atoms: _48  and  _49
REMARK   21  A    between atoms: _48  and  _51
REMARK   22  A    between atoms: _51  and  _52
REMARK   23  A    between atoms: _54  and  _56
REMARK   24  A    between atoms: _56  and  _57
REMARK   25  A    between atoms: _56  and  _59
REMARK   26  A    between atoms: _59  and  _60
REMARK   27  A    between atoms: _60  and  _61
REMARK   28  A    between atoms: _64  and  _66
REMARK   29  A    between atoms: _66  and  _67
REMARK   30  A    between atoms: _66  and  _69
REMARK   31  A    between atoms: _69  and  _70
REMARK   32  A    between atoms: _72  and  _74
REMARK   33  A    between atoms: _74  and  _75
REMARK   34  A    between atoms: _74  and  _77
REMARK   35  A    between atoms: _77  and  _78
REMARK   36  A    between atoms: _81  and  _83
REMARK   37  A    between atoms: _83  and  _84
REMARK   38  A    between atoms: _87  and  _89
REMARK   39  A    between atoms: _89  and  _90
REMARK   40  A    between atoms: _89  and  _92
REMARK   41  A    between atoms: _92  and  _93
REMARK   42  A    between atoms: _93  and  _94
REMARK   43  A    between atoms: _94  and  _95
REMARK   44  A    between atoms: _95  and  _96
REMARK   45  A    between atoms: _100  and  _102
REMARK   46  A    between atoms: _102  and  _103
REMARK   47  A    between atoms: _102  and  _105
REMARK   48  A    between atoms: _105  and  _106
REMARK   49  A    between atoms: _109  and  _111
REMARK   50  A    between atoms: _111  and  _112
REMARK   51  A    between atoms: _111  and  _114
REMARK   52  A    between atoms: _117  and  _119
REMARK   53  A    between atoms: _119  and  _120
REMARK   54  A    between atoms: _119  and  _122
REMARK   55  A    between atoms: _122  and  _123
REMARK   56  A    between atoms: _126  and  _128
REMARK   57  A    between atoms: _128  and  _129
REMARK   58  A    between atoms: _128  and  _131
REMARK   59  A    between atoms: _131  and  _132
REMARK   60  A    between atoms: _132  and  _133
REMARK   61  A    between atoms: _135  and  _137
REMARK   62  A    between atoms: _137  and  _138
REMARK   63  A    between atoms: _137  and  _140
REMARK   64  A    between atoms: _140  and  _141
REMARK   65  A    between atoms: _147  and  _149
REMARK   66  A    between atoms: _149  and  _150
REMARK   67  A    between atoms: _153  and  _155
REMARK   68  A    between atoms: _155  and  _156
REMARK   69  A    between atoms: _155  and  _158
REMARK   70  A    between atoms: _158  and  _159
REMARK   71  A    between atoms: _164  and  _166
REMARK   72  A    between atoms: _166  and  _167
REMARK   73  A    between atoms: _166  and  _169
REMARK   74  A    between atoms: _169  and  _170
REMARK   75  A    between atoms: _173  and  _175
REMARK   76  A    between atoms: _175  and  _176
REMARK   77  A    between atoms: _175  and  _178
REMARK   78  A    between atoms: _178  and  _179
REMARK   79  A    between atoms: _179  and  _180
REMARK   80  A    between atoms: _185  and  _187
REMARK   81  A    between atoms: _187  and  _188
REMARK   82  A    between atoms: _187  and  _190
REMARK   83  A    between atoms: _190  and  _191
REMARK   84  A    between atoms: _195  and  _196
REMARK   85  A    between atoms: _201  and  _203
REMARK   86  A    between atoms: _203  and  _204
REMARK   87  A    between atoms: _203  and  _206
REMARK   88  A    between atoms: _206  and  _207
REMARK   89  A    between atoms: _212  and  _213
REMARK   90  A    between atoms: _215  and  _217
REMARK   91  A    between atoms: _217  and  _218
REMARK   92  A    between atoms: _217  and  _220
REMARK   93  A    between atoms: _220  and  _221
REMARK   94  A    between atoms: _224  and  _226
REMARK   95  A    between atoms: _226  and  _227
REMARK   96  A    between atoms: _226  and  _229
REMARK   97  A    between atoms: _229  and  _230
REMARK   98  A    between atoms: _232  and  _234
REMARK   99  A    between atoms: _234  and  _235
REMARK  100  A    between atoms: _234  and  _237
REMARK  101  A    between atoms: _237  and  _238
REMARK  102  A    between atoms: _243  and  _245
REMARK  103  A    between atoms: _245  and  _246
REMARK  104  A    between atoms: _245  and  _248
REMARK  105  A    between atoms: _248  and  _249
REMARK  106  A    between atoms: _252  and  _254
REMARK  107  A    between atoms: _254  and  _255
REMARK  108  A    between atoms: _254  and  _257
REMARK  109  A    between atoms: _257  and  _258
REMARK  110  A    between atoms: _269  and  _270
REMARK  111  A    between atoms: _275  and  _277
REMARK  112  A    between atoms: _277  and  _278
REMARK  113  A    between atoms: _277  and  _280
REMARK  114  A    between atoms: _280  and  _281
REMARK  115  A    between atoms: _284  and  _286
REMARK  116  A    between atoms: _286  and  _287
REMARK  117  A    between atoms: _286  and  _289
REMARK  118  A    between atoms: _289  and  _290
REMARK  119  A    between atoms: _295  and  _297
REMARK  120  A    between atoms: _297  and  _298
REMARK  121  A    between atoms: _300  and  _302
REMARK  122  A    between atoms: _302  and  _303
REMARK  123  A    between atoms: _302  and  _305
REMARK  124  A    between atoms: _305  and  _306
REMARK  125  A    between atoms: _316  and  _318
REMARK  126  A    between atoms: _318  and  _319
REMARK  127  A    between atoms: _318  and  _321
REMARK  128  A    between atoms: _321  and  _322
REMARK  129  A    between atoms: _327  and  _328
REMARK  130  A    between atoms: _330  and  _332
REMARK  131  A    between atoms: _332  and  _333
REMARK  132  A    between atoms: _332  and  _335
REMARK  133  A    between atoms: _335  and  _336
REMARK  134  A    between atoms: _339  and  _341
REMARK  135  A    between atoms: _341  and  _342
REMARK  136  A    between atoms: _341  and  _344
REMARK  137  A    between atoms: _344  and  _345
REMARK  138  A    between atoms: _350  and  _352
REMARK  139  A    between atoms: _352  and  _353
REMARK  140  A    between atoms: _352  and  _355
REMARK  141  A    between atoms: _355  and  _356
REMARK  142  A    between atoms: _361  and  _363
REMARK  143  A    between atoms: _363  and  _364
REMARK  144  A    between atoms: _363  and  _366
REMARK  145  A    between atoms: _366  and  _367
REMARK  146  A    between atoms: _367  and  _368
REMARK  147  A    between atoms: _371  and  _373
REMARK  148  A    between atoms: _373  and  _374
REMARK  149  A    between atoms: _376  and  _378
REMARK  150  A    between atoms: _378  and  _379
REMARK  151  A    between atoms: _378  and  _381
REMARK  152  A    between atoms: _381  and  _382
REMARK  153  A    between atoms: _384  and  _386
REMARK  154  A    between atoms: _386  and  _387
REMARK  155  A    between atoms: _386  and  _389
REMARK  156  A    between atoms: _389  and  _390
REMARK  157  A    between atoms: _395  and  _396
REMARK  158  A    between atoms: _398  and  _400
REMARK  159  A    between atoms: _400  and  _401
REMARK  160  A    between atoms: _400  and  _403
REMARK  161  A    between atoms: _403  and  _404
REMARK  162  A    between atoms: _409  and  _411
REMARK  163  A    between atoms: _411  and  _412
REMARK  164  A    between atoms: _414  and  _416
REMARK  165  A    between atoms: _416  and  _417
REMARK  166  A    between atoms: _416  and  _419
REMARK  167  A    between atoms: _419  and  _420
REMARK  168  A    between atoms: _425  and  _427
REMARK  169  A    between atoms: _427  and  _428
REMARK  170  A    between atoms: _427  and  _430
REMARK  171  A    between atoms: _430  and  _431
REMARK  172  A    between atoms: _441  and  _443
REMARK  173  A    between atoms: _443  and  _444
REMARK  174  A    between atoms: _443  and  _446
REMARK  175  A    between atoms: _446  and  _447
REMARK  176  A    between atoms: _452  and  _454
REMARK  177  A    between atoms: _454  and  _455
REMARK  178  A    between atoms: _454  and  _457
REMARK  179  A    between atoms: _457  and  _458
REMARK  180  A    between atoms: _458  and  _459
REMARK  181  A    between atoms: _459  and  _460
REMARK  182  A    between atoms: _460  and  _461
REMARK  183  A    between atoms: _465  and  _467
REMARK  184  A    between atoms: _467  and  _468
REMARK  185  A    between atoms: _467  and  _470
REMARK  186  A    between atoms: _470  and  _471
REMARK  187  A    between atoms: _477  and  _479
REMARK  188  A    between atoms: _479  and  _480
REMARK  189  A    between atoms: _482  and  _484
REMARK  190  A    between atoms: _484  and  _485
REMARK  191  A    between atoms: _484  and  _487
REMARK  192  A    between atoms: _487  and  _488
REMARK  193  A    between atoms: _490  and  _492
REMARK  194  A    between atoms: _492  and  _493
REMARK  195  A    between atoms: _492  and  _495
REMARK  196  A    between atoms: _495  and  _496
REMARK  197  A    between atoms: _496  and  _497
REMARK  198  A    between atoms: _497  and  _498
REMARK  199  A    between atoms: _498  and  _499
REMARK  200  A    between atoms: _503  and  _505
REMARK  201  A    between atoms: _505  and  _506
REMARK  202  A    between atoms: _505  and  _508
REMARK  203  A    between atoms: _508  and  _509
REMARK  204  A    between atoms: _514  and  _516
REMARK  205  A    between atoms: _516  and  _517
REMARK  206  A    between atoms: _516  and  _519
REMARK  207  A    between atoms: _519  and  _520
REMARK  208  A    between atoms: _520  and  _521
REMARK  209  A    between atoms: _521  and  _522
REMARK  210  A    between atoms: _531  and  _533
REMARK  211  A    between atoms: _533  and  _534
REMARK  212  A    between atoms: _533  and  _536
REMARK  213  A    between atoms: _536  and  _537
REMARK  214  A    between atoms: _537  and  _538
REMARK  215  A    between atoms: _543  and  _545
REMARK  216  A    between atoms: _545  and  _546
REMARK  217  A    between atoms: _545  and  _548
REMARK  218  A    between atoms: _548  and  _549
REMARK  219  A    between atoms: _549  and  _550
REMARK  220  A    between atoms: _555  and  _557
REMARK  221  A    between atoms: _557  and  _558
REMARK  222  A    between atoms: _557  and  _560
REMARK  223  A    between atoms: _560  and  _561
REMARK  224  A    between atoms: _564  and  _566
REMARK  225  A    between atoms: _566  and  _567
REMARK  226  A    between atoms: _566  and  _569
REMARK  227  A    between atoms: _569  and  _570
REMARK  228  A    between atoms: _570  and  _571
REMARK  229  A    between atoms: _573  and  _575
REMARK  230  A    between atoms: _575  and  _576
REMARK  231  A    between atoms: _575  and  _578
REMARK  232  A    between atoms: _578  and  _579
REMARK  233  A    between atoms: _581  and  _583
REMARK  234  A    between atoms: _583  and  _584
REMARK  235  A    between atoms: _586  and  _588
REMARK  236  A    between atoms: _588  and  _589
REMARK  237  A    between atoms: _588  and  _591
REMARK  238  A    between atoms: _591  and  _592
REMARK  239  A    between atoms: _597  and  _598
REMARK  240  A    between atoms: _600  and  _602
REMARK  241  A    between atoms: _602  and  _603
REMARK  242  A    between atoms: _602  and  _605
REMARK  243  A    between atoms: _605  and  _606
REMARK  244  A    between atoms: _616  and  _618
REMARK  245  A    between atoms: _618  and  _619
REMARK  246  A    between atoms: _618  and  _621
REMARK  247  A    between atoms: _621  and  _622
REMARK  248  A    between atoms: _625  and  _627
REMARK  249  A    between atoms: _627  and  _628
REMARK  250  A    between atoms: _631  and  _633
REMARK  251  A    between atoms: _633  and  _634
REMARK  252  A    between atoms: _637  and  _639
REMARK  253  A    between atoms: _639  and  _640
REMARK  254  A    between atoms: _639  and  _642
REMARK  255  A    between atoms: _642  and  _643
REMARK  256  A    between atoms: _647  and  _648
REMARK                            x       y       z     vdW  Elec       q    Type
REMARK                         _______ _______ _______ _____ _____    ______ ____
ROOT
ATOM      1  O   HOH     1      27.624  62.024  27.051  0.00  0.00    +0.000 OA
ENDROOT
TORSDOF 0
REMARK  Name = ../refined-set-2016/4uac/4uac_pocket.pdb
REMARK  256 active torsions:
REMARK  status: ('A' for Active; 'I' for Inactive)
REMARK    1  A    between atoms: _1  and  _3
REMARK    2  A    between atoms: _3  and  _4
REMARK    3  A    between atoms: _7  and  _8
REMARK    4  A    between atoms: _13  and  _15
REMARK    5  A    between atoms: _15  and  _16
REMARK    6  A    between atoms: _19  and  _21
REMARK    7  A    between atoms: _21  and  _22
REMARK    8  A    between atoms: _21  and  _24
REMARK    9  A    between atoms: _24  and  _25
REMARK   10  A    between atoms: _25  and  _26
REMARK   11  A    between atoms: _29  and  _31
REMARK   12  A    between atoms: _31  and  _32
REMARK   13  A    between atoms: _31  and  _34
REMARK   14  A    between atoms: _34  and  _35
REMARK   15  A    between atoms: _38  and  _40
REMARK   16  A    between atoms: _40  and  _41
REMARK   17  A    between atoms: _40  and  _43
REMARK   18  A    between atoms: _43  and  _44
REMARK   19  A    between atoms: _46  and  _48
REMARK   20  A    between atoms: _48  and  _49
REMARK   21  A    between atoms: _48  and  _51
REMARK   22  A    between atoms: _51  and  _52
REMARK   23  A    between atoms: _54  and  _56
REMARK   24  A    between atoms: _56  and  _57
REMARK   25  A    between atoms: _56  and  _59
REMARK   26  A    between atoms: _59  and  _60
REMARK   27  A    between atoms: _60  and  _61
REMARK   28  A    between atoms: _64  and  _66
REMARK   29  A    between atoms: _66  and  _67
REMARK   30  A    between atoms: _66  and  _69
REMARK   31  A    between atoms: _69  and  _70
REMARK   32  A    between atoms: _72  and  _74
REMARK   33  A    between atoms: _74  and  _75
REMARK   34  A    between atoms: _74  and  _77
REMARK   35  A    between atoms: _77  and  _78
REMARK   36  A    between atoms: _81  and  _83
REMARK   37  A    between atoms: _83  and  _84
REMARK   38  A    between atoms: _87  and  _89
REMARK   39  A    between atoms: _89  and  _90
REMARK   40  A    between atoms: _89  and  _92
REMARK   41  A    between atoms: _92  and  _93
REMARK   42  A    between atoms: _93  and  _94
REMARK   43  A    between atoms: _94  and  _95
REMARK   44  A    between atoms: _95  and  _96
REMARK   45  A    between atoms: _100  and  _102
REMARK   46  A    between atoms: _102  and  _103
REMARK   47  A    between atoms: _102  and  _105
REMARK   48  A    between atoms: _105  and  _106
REMARK   49  A    between atoms: _109  and  _111
REMARK   50  A    between atoms: _111  and  _112
REMARK   51  A    between atoms: _111  and  _114
REMARK   52  A    between atoms: _117  and  _119
REMARK   53  A    between atoms: _119  and  _120
REMARK   54  A    between atoms: _119  and  _122
REMARK   55  A    between atoms: _122  and  _123
REMARK   56  A    between atoms: _126  and  _128
REMARK   57  A    between atoms: _128  and  _129
REMARK   58  A    between atoms: _128  and  _131
REMARK   59  A    between atoms: _131  and  _132
REMARK   60  A    between atoms: _132  and  _133
REMARK   61  A    between atoms: _135  and  _137
REMARK   62  A    between atoms: _137  and  _138
REMARK   63  A    between atoms: _137  and  _140
REMARK   64  A    between atoms: _140  and  _141
REMARK   65  A    between atoms: _147  and  _149
REMARK   66  A    between atoms: _149  and  _150
REMARK   67  A    between atoms: _153  and  _155
REMARK   68  A    between atoms: _155  and  _156
REMARK   69  A    between atoms: _155  and  _158
REMARK   70  A    between atoms: _158  and  _159
REMARK   71  A    between atoms: _164  and  _166
REMARK   72  A    between atoms: _166  and  _167
REMARK   73  A    between atoms: _166  and  _169
REMARK   74  A    between atoms: _169  and  _170
REMARK   75  A    between atoms: _173  and  _175
REMARK   76  A    between atoms: _175  and  _176
REMARK   77  A    between atoms: _175  and  _178
REMARK   78  A    between atoms: _178  and  _179
REMARK   79  A    between atoms: _179  and  _180
REMARK   80  A    between atoms: _185  and  _187
REMARK   81  A    between atoms: _187  and  _188
REMARK   82  A    between atoms: _187  and  _190
REMARK   83  A    between atoms: _190  and  _191
REMARK   84  A    between atoms: _195  and  _196
REMARK   85  A    between atoms: _201  and  _203
REMARK   86  A    between atoms: _203  and  _204
REMARK   87  A    between atoms: _203  and  _206
REMARK   88  A    between atoms: _206  and  _207
REMARK   89  A    between atoms: _212  and  _213
REMARK   90  A    between atoms: _215  and  _217
REMARK   91  A    between atoms: _217  and  _218
REMARK   92  A    between atoms: _217  and  _220
REMARK   93  A    between atoms: _220  and  _221
REMARK   94  A    between atoms: _224  and  _226
REMARK   95  A    between atoms: _226  and  _227
REMARK   96  A    between atoms: _226  and  _229
REMARK   97  A    between atoms: _229  and  _230
REMARK   98  A    between atoms: _232  and  _234
REMARK   99  A    between atoms: _234  and  _235
REMARK  100  A    between atoms: _234  and  _237
REMARK  101  A    between atoms: _237  and  _238
REMARK  102  A    between atoms: _243  and  _245
REMARK  103  A    between atoms: _245  and  _246
REMARK  104  A    between atoms: _245  and  _248
REMARK  105  A    between atoms: _248  and  _249
REMARK  106  A    between atoms: _252  and  _254
REMARK  107  A    between atoms: _254  and  _255
REMARK  108  A    between atoms: _254  and  _257
REMARK  109  A    between atoms: _257  and  _258
REMARK  110  A    between atoms: _269  and  _270
REMARK  111  A    between atoms: _275  and  _277
REMARK  112  A    between atoms: _277  and  _278
REMARK  113  A    between atoms: _277  and  _280
REMARK  114  A    between atoms: _280  and  _281
REMARK  115  A    between atoms: _284  and  _286
REMARK  116  A    between atoms: _286  and  _287
REMARK  117  A    between atoms: _286  and  _289
REMARK  118  A    between atoms: _289  and  _290
REMARK  119  A    between atoms: _295  and  _297
REMARK  120  A    between atoms: _297  and  _298
REMARK  121  A    between atoms: _300  and  _302
REMARK  122  A    between atoms: _302  and  _303
REMARK  123  A    between atoms: _302  and  _305
REMARK  124  A    between atoms: _305  and  _306
REMARK  125  A    between atoms: _316  and  _318
REMARK  126  A    between atoms: _318  and  _319
REMARK  127  A    between atoms: _318  and  _321
REMARK  128  A    between atoms: _321  and  _322
REMARK  129  A    between atoms: _327  and  _328
REMARK  130  A    between atoms: _330  and  _332
REMARK  131  A    between atoms: _332  and  _333
REMARK  132  A    between atoms: _332  and  _335
REMARK  133  A    between atoms: _335  and  _336
REMARK  134  A    between atoms: _339  and  _341
REMARK  135  A    between atoms: _341  and  _342
REMARK  136  A    between atoms: _341  and  _344
REMARK  137  A    between atoms: _344  and  _345
REMARK  138  A    between atoms: _350  and  _352
REMARK  139  A    between atoms: _352  and  _353
REMARK  140  A    between atoms: _352  and  _355
REMARK  141  A    between atoms: _355  and  _356
REMARK  142  A    between atoms: _361  and  _363
REMARK  143  A    between atoms: _363  and  _364
REMARK  144  A    between atoms: _363  and  _366
REMARK  145  A    between atoms: _366  and  _367
REMARK  146  A    between atoms: _367  and  _368
REMARK  147  A    between atoms: _371  and  _373
REMARK  148  A    between atoms: _373  and  _374
REMARK  149  A    between atoms: _376  and  _378
REMARK  150  A    between atoms: _378  and  _379
REMARK  151  A    between atoms: _378  and  _381
REMARK  152  A    between atoms: _381  and  _382
REMARK  153  A    between atoms: _384  and  _386
REMARK  154  A    between atoms: _386  and  _387
REMARK  155  A    between atoms: _386  and  _389
REMARK  156  A    between atoms: _389  and  _390
REMARK  157  A    between atoms: _395  and  _396
REMARK  158  A    between atoms: _398  and  _400
REMARK  159  A    between atoms: _400  and  _401
REMARK  160  A    between atoms: _400  and  _403
REMARK  161  A    between atoms: _403  and  _404
REMARK  162  A    between atoms: _409  and  _411
REMARK  163  A    between atoms: _411  and  _412
REMARK  164  A    between atoms: _414  and  _416
REMARK  165  A    between atoms: _416  and  _417
REMARK  166  A    between atoms: _416  and  _419
REMARK  167  A    between atoms: _419  and  _420
REMARK  168  A    between atoms: _425  and  _427
REMARK  169  A    between atoms: _427  and  _428
REMARK  170  A    between atoms: _427  and  _430
REMARK  171  A    between atoms: _430  and  _431
REMARK  172  A    between atoms: _441  and  _443
REMARK  173  A    between atoms: _443  and  _444
REMARK  174  A    between atoms: _443  and  _446
REMARK  175  A    between atoms: _446  and  _447
REMARK  176  A    between atoms: _452  and  _454
REMARK  177  A    between atoms: _454  and  _455
REMARK  178  A    between atoms: _454  and  _457
REMARK  179  A    between atoms: _457  and  _458
REMARK  180  A    between atoms: _458  and  _459
REMARK  181  A    between atoms: _459  and  _460
REMARK  182  A    between atoms: _460  and  _461
REMARK  183  A    between atoms: _465  and  _467
REMARK  184  A    between atoms: _467  and  _468
REMARK  185  A    between atoms: _467  and  _470
REMARK  186  A    between atoms: _470  and  _471
REMARK  187  A    between atoms: _477  and  _479
REMARK  188  A    between atoms: _479  and  _480
REMARK  189  A    between atoms: _482  and  _484
REMARK  190  A    between atoms: _484  and  _485
REMARK  191  A    between atoms: _484  and  _487
REMARK  192  A    between atoms: _487  and  _488
REMARK  193  A    between atoms: _490  and  _492
REMARK  194  A    between atoms: _492  and  _493
REMARK  195  A    between atoms: _492  and  _495
REMARK  196  A    between atoms: _495  and  _496
REMARK  197  A    between atoms: _496  and  _497
REMARK  198  A    between atoms: _497  and  _498
REMARK  199  A    between atoms: _498  and  _499
REMARK  200  A    between atoms: _503  and  _505
REMARK  201  A    between atoms: _505  and  _506
REMARK  202  A    between atoms: _505  and  _508
REMARK  203  A    between atoms: _508  and  _509
REMARK  204  A    between atoms: _514  and  _516
REMARK  205  A    between atoms: _516  and  _517
REMARK  206  A    between atoms: _516  and  _519
REMARK  207  A    between atoms: _519  and  _520
REMARK  208  A    between atoms: _520  and  _521
REMARK  209  A    between atoms: _521  and  _522
REMARK  210  A    between atoms: _531  and  _533
REMARK  211  A    between atoms: _533  and  _534
REMARK  212  A    between atoms: _533  and  _536
REMARK  213  A    between atoms: _536  and  _537
REMARK  214  A    between atoms: _537  and  _538
REMARK  215  A    between atoms: _543  and  _545
REMARK  216  A    between atoms: _545  and  _546
REMARK  217  A    between atoms: _545  and  _548
REMARK  218  A    between atoms: _548  and  _549
REMARK  219  A    between atoms: _549  and  _550
REMARK  220  A    between atoms: _555  and  _557
REMARK  221  A    between atoms: _557  and  _558
REMARK  222  A    between atoms: _557  and  _560
REMARK  223  A    between atoms: _560  and  _561
REMARK  224  A    between atoms: _564  and  _566
REMARK  225  A    between atoms: _566  and  _567
REMARK  226  A    between atoms: _566  and  _569
REMARK  227  A    between atoms: _569  and  _570
REMARK  228  A    between atoms: _570  and  _571
REMARK  229  A    between atoms: _573  and  _575
REMARK  230  A    between atoms: _575  and  _576
REMARK  231  A    between atoms: _575  and  _578
REMARK  232  A    between atoms: _578  and  _579
REMARK  233  A    between atoms: _581  and  _583
REMARK  234  A    between atoms: _583  and  _584
REMARK  235  A    between atoms: _586  and  _588
REMARK  236  A    between atoms: _588  and  _589
REMARK  237  A    between atoms: _588  and  _591
REMARK  238  A    between atoms: _591  and  _592
REMARK  239  A    between atoms: _597  and  _598
REMARK  240  A    between atoms: _600  and  _602
REMARK  241  A    between atoms: _602  and  _603
REMARK  242  A    between atoms: _602  and  _605
REMARK  243  A    between atoms: _605  and  _606
REMARK  244  A    between atoms: _616  and  _618
REMARK  245  A    between atoms: _618  and  _619
REMARK  246  A    between atoms: _618  and  _621
REMARK  247  A    between atoms: _621  and  _622
REMARK  248  A    between atoms: _625  and  _627
REMARK  249  A    between atoms: _627  and  _628
REMARK  250  A    between atoms: _631  and  _633
REMARK  251  A    between atoms: _633  and  _634
REMARK  252  A    between atoms: _637  and  _639
REMARK  253  A    between atoms: _639  and  _640
REMARK  254  A    between atoms: _639  and  _642
REMARK  255  A    between atoms: _642  and  _643
REMARK  256  A    between atoms: _647  and  _648
REMARK                            x       y       z     vdW  Elec       q    Type
REMARK                         _______ _______ _______ _____ _____    ______ ____
ROOT
ATOM      1  O   HOH     1      33.227  65.059  32.250  0.00  0.00    +0.000 OA
ENDROOT
TORSDOF 0
REMARK  Name = ../refined-set-2016/4uac/4uac_pocket.pdb
REMARK  256 active torsions:
REMARK  status: ('A' for Active; 'I' for Inactive)
REMARK    1  A    between atoms: _1  and  _3
REMARK    2  A    between atoms: _3  and  _4
REMARK    3  A    between atoms: _7  and  _8
REMARK    4  A    between atoms: _13  and  _15
REMARK    5  A    between atoms: _15  and  _16
REMARK    6  A    between atoms: _19  and  _21
REMARK    7  A    between atoms: _21  and  _22
REMARK    8  A    between atoms: _21  and  _24
REMARK    9  A    between atoms: _24  and  _25
REMARK   10  A    between atoms: _25  and  _26
REMARK   11  A    between atoms: _29  and  _31
REMARK   12  A    between atoms: _31  and  _32
REMARK   13  A    between atoms: _31  and  _34
REMARK   14  A    between atoms: _34  and  _35
REMARK   15  A    between atoms: _38  and  _40
REMARK   16  A    between atoms: _40  and  _41
REMARK   17  A    between atoms: _40  and  _43
REMARK   18  A    between atoms: _43  and  _44
REMARK   19  A    between atoms: _46  and  _48
REMARK   20  A    between atoms: _48  and  _49
REMARK   21  A    between atoms: _48  and  _51
REMARK   22  A    between atoms: _51  and  _52
REMARK   23  A    between atoms: _54  and  _56
REMARK   24  A    between atoms: _56  and  _57
REMARK   25  A    between atoms: _56  and  _59
REMARK   26  A    between atoms: _59  and  _60
REMARK   27  A    between atoms: _60  and  _61
REMARK   28  A    between atoms: _64  and  _66
REMARK   29  A    between atoms: _66  and  _67
REMARK   30  A    between atoms: _66  and  _69
REMARK   31  A    between atoms: _69  and  _70
REMARK   32  A    between atoms: _72  and  _74
REMARK   33  A    between atoms: _74  and  _75
REMARK   34  A    between atoms: _74  and  _77
REMARK   35  A    between atoms: _77  and  _78
REMARK   36  A    between atoms: _81  and  _83
REMARK   37  A    between atoms: _83  and  _84
REMARK   38  A    between atoms: _87  and  _89
REMARK   39  A    between atoms: _89  and  _90
REMARK   40  A    between atoms: _89  and  _92
REMARK   41  A    between atoms: _92  and  _93
REMARK   42  A    between atoms: _93  and  _94
REMARK   43  A    between atoms: _94  and  _95
REMARK   44  A    between atoms: _95  and  _96
REMARK   45  A    between atoms: _100  and  _102
REMARK   46  A    between atoms: _102  and  _103
REMARK   47  A    between atoms: _102  and  _105
REMARK   48  A    between atoms: _105  and  _106
REMARK   49  A    between atoms: _109  and  _111
REMARK   50  A    between atoms: _111  and  _112
REMARK   51  A    between atoms: _111  and  _114
REMARK   52  A    between atoms: _117  and  _119
REMARK   53  A    between atoms: _119  and  _120
REMARK   54  A    between atoms: _119  and  _122
REMARK   55  A    between atoms: _122  and  _123
REMARK   56  A    between atoms: _126  and  _128
REMARK   57  A    between atoms: _128  and  _129
REMARK   58  A    between atoms: _128  and  _131
REMARK   59  A    between atoms: _131  and  _132
REMARK   60  A    between atoms: _132  and  _133
REMARK   61  A    between atoms: _135  and  _137
REMARK   62  A    between atoms: _137  and  _138
REMARK   63  A    between atoms: _137  and  _140
REMARK   64  A    between atoms: _140  and  _141
REMARK   65  A    between atoms: _147  and  _149
REMARK   66  A    between atoms: _149  and  _150
REMARK   67  A    between atoms: _153  and  _155
REMARK   68  A    between atoms: _155  and  _156
REMARK   69  A    between atoms: _155  and  _158
REMARK   70  A    between atoms: _158  and  _159
REMARK   71  A    between atoms: _164  and  _166
REMARK   72  A    between atoms: _166  and  _167
REMARK   73  A    between atoms: _166  and  _169
REMARK   74  A    between atoms: _169  and  _170
REMARK   75  A    between atoms: _173  and  _175
REMARK   76  A    between atoms: _175  and  _176
REMARK   77  A    between atoms: _175  and  _178
REMARK   78  A    between atoms: _178  and  _179
REMARK   79  A    between atoms: _179  and  _180
REMARK   80  A    between atoms: _185  and  _187
REMARK   81  A    between atoms: _187  and  _188
REMARK   82  A    between atoms: _187  and  _190
REMARK   83  A    between atoms: _190  and  _191
REMARK   84  A    between atoms: _195  and  _196
REMARK   85  A    between atoms: _201  and  _203
REMARK   86  A    between atoms: _203  and  _204
REMARK   87  A    between atoms: _203  and  _206
REMARK   88  A    between atoms: _206  and  _207
REMARK   89  A    between atoms: _212  and  _213
REMARK   90  A    between atoms: _215  and  _217
REMARK   91  A    between atoms: _217  and  _218
REMARK   92  A    between atoms: _217  and  _220
REMARK   93  A    between atoms: _220  and  _221
REMARK   94  A    between atoms: _224  and  _226
REMARK   95  A    between atoms: _226  and  _227
REMARK   96  A    between atoms: _226  and  _229
REMARK   97  A    between atoms: _229  and  _230
REMARK   98  A    between atoms: _232  and  _234
REMARK   99  A    between atoms: _234  and  _235
REMARK  100  A    between atoms: _234  and  _237
REMARK  101  A    between atoms: _237  and  _238
REMARK  102  A    between atoms: _243  and  _245
REMARK  103  A    between atoms: _245  and  _246
REMARK  104  A    between atoms: _245  and  _248
REMARK  105  A    between atoms: _248  and  _249
REMARK  106  A    between atoms: _252  and  _254
REMARK  107  A    between atoms: _254  and  _255
REMARK  108  A    between atoms: _254  and  _257
REMARK  109  A    between atoms: _257  and  _258
REMARK  110  A    between atoms: _269  and  _270
REMARK  111  A    between atoms: _275  and  _277
REMARK  112  A    between atoms: _277  and  _278
REMARK  113  A    between atoms: _277  and  _280
REMARK  114  A    between atoms: _280  and  _281
REMARK  115  A    between atoms: _284  and  _286
REMARK  116  A    between atoms: _286  and  _287
REMARK  117  A    between atoms: _286  and  _289
REMARK  118  A    between atoms: _289  and  _290
REMARK  119  A    between atoms: _295  and  _297
REMARK  120  A    between atoms: _297  and  _298
REMARK  121  A    between atoms: _300  and  _302
REMARK  122  A    between atoms: _302  and  _303
REMARK  123  A    between atoms: _302  and  _305
REMARK  124  A    between atoms: _305  and  _306
REMARK  125  A    between atoms: _316  and  _318
REMARK  126  A    between atoms: _318  and  _319
REMARK  127  A    between atoms: _318  and  _321
REMARK  128  A    between atoms: _321  and  _322
REMARK  129  A    between atoms: _327  and  _328
REMARK  130  A    between atoms: _330  and  _332
REMARK  131  A    between atoms: _332  and  _333
REMARK  132  A    between atoms: _332  and  _335
REMARK  133  A    between atoms: _335  and  _336
REMARK  134  A    between atoms: _339  and  _341
REMARK  135  A    between atoms: _341  and  _342
REMARK  136  A    between atoms: _341  and  _344
REMARK  137  A    between atoms: _344  and  _345
REMARK  138  A    between atoms: _350  and  _352
REMARK  139  A    between atoms: _352  and  _353
REMARK  140  A    between atoms: _352  and  _355
REMARK  141  A    between atoms: _355  and  _356
REMARK  142  A    between atoms: _361  and  _363
REMARK  143  A    between atoms: _363  and  _364
REMARK  144  A    between atoms: _363  and  _366
REMARK  145  A    between atoms: _366  and  _367
REMARK  146  A    between atoms: _367  and  _368
REMARK  147  A    between atoms: _371  and  _373
REMARK  148  A    between atoms: _373  and  _374
REMARK  149  A    between atoms: _376  and  _378
REMARK  150  A    between atoms: _378  and  _379
REMARK  151  A    between atoms: _378  and  _381
REMARK  152  A    between atoms: _381  and  _382
REMARK  153  A    between atoms: _384  and  _386
REMARK  154  A    between atoms: _386  and  _387
REMARK  155  A    between atoms: _386  and  _389
REMARK  156  A    between atoms: _389  and  _390
REMARK  157  A    between atoms: _395  and  _396
REMARK  158  A    between atoms: _398  and  _400
REMARK  159  A    between atoms: _400  and  _401
REMARK  160  A    between atoms: _400  and  _403
REMARK  161  A    between atoms: _403  and  _404
REMARK  162  A    between atoms: _409  and  _411
REMARK  163  A    between atoms: _411  and  _412
REMARK  164  A    between atoms: _414  and  _416
REMARK  165  A    between atoms: _416  and  _417
REMARK  166  A    between atoms: _416  and  _419
REMARK  167  A    between atoms: _419  and  _420
REMARK  168  A    between atoms: _425  and  _427
REMARK  169  A    between atoms: _427  and  _428
REMARK  170  A    between atoms: _427  and  _430
REMARK  171  A    between atoms: _430  and  _431
REMARK  172  A    between atoms: _441  and  _443
REMARK  173  A    between atoms: _443  and  _444
REMARK  174  A    between atoms: _443  and  _446
REMARK  175  A    between atoms: _446  and  _447
REMARK  176  A    between atoms: _452  and  _454
REMARK  177  A    between atoms: _454  and  _455
REMARK  178  A    between atoms: _454  and  _457
REMARK  179  A    between atoms: _457  and  _458
REMARK  180  A    between atoms: _458  and  _459
REMARK  181  A    between atoms: _459  and  _460
REMARK  182  A    between atoms: _460  and  _461
REMARK  183  A    between atoms: _465  and  _467
REMARK  184  A    between atoms: _467  and  _468
REMARK  185  A    between atoms: _467  and  _470
REMARK  186  A    between atoms: _470  and  _471
REMARK  187  A    between atoms: _477  and  _479
REMARK  188  A    between atoms: _479  and  _480
REMARK  189  A    between atoms: _482  and  _484
REMARK  190  A    between atoms: _484  and  _485
REMARK  191  A    between atoms: _484  and  _487
REMARK  192  A    between atoms: _487  and  _488
REMARK  193  A    between atoms: _490  and  _492
REMARK  194  A    between atoms: _492  and  _493
REMARK  195  A    between atoms: _492  and  _495
REMARK  196  A    between atoms: _495  and  _496
REMARK  197  A    between atoms: _496  and  _497
REMARK  198  A    between atoms: _497  and  _498
REMARK  199  A    between atoms: _498  and  _499
REMARK  200  A    between atoms: _503  and  _505
REMARK  201  A    between atoms: _505  and  _506
REMARK  202  A    between atoms: _505  and  _508
REMARK  203  A    between atoms: _508  and  _509
REMARK  204  A    between atoms: _514  and  _516
REMARK  205  A    between atoms: _516  and  _517
REMARK  206  A    between atoms: _516  and  _519
REMARK  207  A    between atoms: _519  and  _520
REMARK  208  A    between atoms: _520  and  _521
REMARK  209  A    between atoms: _521  and  _522
REMARK  210  A    between atoms: _531  and  _533
REMARK  211  A    between atoms: _533  and  _534
REMARK  212  A    between atoms: _533  and  _536
REMARK  213  A    between atoms: _536  and  _537
REMARK  214  A    between atoms: _537  and  _538
REMARK  215  A    between atoms: _543  and  _545
REMARK  216  A    between atoms: _545  and  _546
REMARK  217  A    between atoms: _545  and  _548
REMARK  218  A    between atoms: _548  and  _549
REMARK  219  A    between atoms: _549  and  _550
REMARK  220  A    between atoms: _555  and  _557
REMARK  221  A    between atoms: _557  and  _558
REMARK  222  A    between atoms: _557  and  _560
REMARK  223  A    between atoms: _560  and  _561
REMARK  224  A    between atoms: _564  and  _566
REMARK  225  A    between atoms: _566  and  _567
REMARK  226  A    between atoms: _566  and  _569
REMARK  227  A    between atoms: _569  and  _570
REMARK  228  A    between atoms: _570  and  _571
REMARK  229  A    between atoms: _573  and  _575
REMARK  230  A    between atoms: _575  and  _576
REMARK  231  A    between atoms: _575  and  _578
REMARK  232  A    between atoms: _578  and  _579
REMARK  233  A    between atoms: _581  and  _583
REMARK  234  A    between atoms: _583  and  _584
REMARK  235  A    between atoms: _586  and  _588
REMARK  236  A    between atoms: _588  and  _589
REMARK  237  A    between atoms: _588  and  _591
REMARK  238  A    between atoms: _591  and  _592
REMARK  239  A    between atoms: _597  and  _598
REMARK  240  A    between atoms: _600  and  _602
REMARK  241  A    between atoms: _602  and  _603
REMARK  242  A    between atoms: _602  and  _605
REMARK  243  A    between atoms: _605  and  _606
REMARK  244  A    between atoms: _616  and  _618
REMARK  245  A    between atoms: _618  and  _619
REMARK  246  A    between atoms: _618  and  _621
REMARK  247  A    between atoms: _621  and  _622
REMARK  248  A    between atoms: _625  and  _627
REMARK  249  A    between atoms: _627  and  _628
REMARK  250  A    between atoms: _631  and  _633
REMARK  251  A    between atoms: _633  and  _634
REMARK  252  A    between atoms: _637  and  _639
REMARK  253  A    between atoms: _639  and  _640
REMARK  254  A    between atoms: _639  and  _642
REMARK  255  A    between atoms: _642  and  _643
REMARK  256  A    between atoms: _647  and  _648
REMARK                            x       y       z     vdW  Elec       q    Type
REMARK                         _______ _______ _______ _____ _____    ______ ____
ROOT
ATOM      1  O   HOH     1      37.950  68.584  19.749  0.00  0.00    +0.000 OA
ENDROOT
TORSDOF 0
REMARK  Name = ../refined-set-2016/4uac/4uac_pocket.pdb
REMARK  256 active torsions:
REMARK  status: ('A' for Active; 'I' for Inactive)
REMARK    1  A    between atoms: _1  and  _3
REMARK    2  A    between atoms: _3  and  _4
REMARK    3  A    between atoms: _7  and  _8
REMARK    4  A    between atoms: _13  and  _15
REMARK    5  A    between atoms: _15  and  _16
REMARK    6  A    between atoms: _19  and  _21
REMARK    7  A    between atoms: _21  and  _22
REMARK    8  A    between atoms: _21  and  _24
REMARK    9  A    between atoms: _24  and  _25
REMARK   10  A    between atoms: _25  and  _26
REMARK   11  A    between atoms: _29  and  _31
REMARK   12  A    between atoms: _31  and  _32
REMARK   13  A    between atoms: _31  and  _34
REMARK   14  A    between atoms: _34  and  _35
REMARK   15  A    between atoms: _38  and  _40
REMARK   16  A    between atoms: _40  and  _41
REMARK   17  A    between atoms: _40  and  _43
REMARK   18  A    between atoms: _43  and  _44
REMARK   19  A    between atoms: _46  and  _48
REMARK   20  A    between atoms: _48  and  _49
REMARK   21  A    between atoms: _48  and  _51
REMARK   22  A    between atoms: _51  and  _52
REMARK   23  A    between atoms: _54  and  _56
REMARK   24  A    between atoms: _56  and  _57
REMARK   25  A    between atoms: _56  and  _59
REMARK   26  A    between atoms: _59  and  _60
REMARK   27  A    between atoms: _60  and  _61
REMARK   28  A    between atoms: _64  and  _66
REMARK   29  A    between atoms: _66  and  _67
REMARK   30  A    between atoms: _66  and  _69
REMARK   31  A    between atoms: _69  and  _70
REMARK   32  A    between atoms: _72  and  _74
REMARK   33  A    between atoms: _74  and  _75
REMARK   34  A    between atoms: _74  and  _77
REMARK   35  A    between atoms: _77  and  _78
REMARK   36  A    between atoms: _81  and  _83
REMARK   37  A    between atoms: _83  and  _84
REMARK   38  A    between atoms: _87  and  _89
REMARK   39  A    between atoms: _89  and  _90
REMARK   40  A    between atoms: _89  and  _92
REMARK   41  A    between atoms: _92  and  _93
REMARK   42  A    between atoms: _93  and  _94
REMARK   43  A    between atoms: _94  and  _95
REMARK   44  A    between atoms: _95  and  _96
REMARK   45  A    between atoms: _100  and  _102
REMARK   46  A    between atoms: _102  and  _103
REMARK   47  A    between atoms: _102  and  _105
REMARK   48  A    between atoms: _105  and  _106
REMARK   49  A    between atoms: _109  and  _111
REMARK   50  A    between atoms: _111  and  _112
REMARK   51  A    between atoms: _111  and  _114
REMARK   52  A    between atoms: _117  and  _119
REMARK   53  A    between atoms: _119  and  _120
REMARK   54  A    between atoms: _119  and  _122
REMARK   55  A    between atoms: _122  and  _123
REMARK   56  A    between atoms: _126  and  _128
REMARK   57  A    between atoms: _128  and  _129
REMARK   58  A    between atoms: _128  and  _131
REMARK   59  A    between atoms: _131  and  _132
REMARK   60  A    between atoms: _132  and  _133
REMARK   61  A    between atoms: _135  and  _137
REMARK   62  A    between atoms: _137  and  _138
REMARK   63  A    between atoms: _137  and  _140
REMARK   64  A    between atoms: _140  and  _141
REMARK   65  A    between atoms: _147  and  _149
REMARK   66  A    between atoms: _149  and  _150
REMARK   67  A    between atoms: _153  and  _155
REMARK   68  A    between atoms: _155  and  _156
REMARK   69  A    between atoms: _155  and  _158
REMARK   70  A    between atoms: _158  and  _159
REMARK   71  A    between atoms: _164  and  _166
REMARK   72  A    between atoms: _166  and  _167
REMARK   73  A    between atoms: _166  and  _169
REMARK   74  A    between atoms: _169  and  _170
REMARK   75  A    between atoms: _173  and  _175
REMARK   76  A    between atoms: _175  and  _176
REMARK   77  A    between atoms: _175  and  _178
REMARK   78  A    between atoms: _178  and  _179
REMARK   79  A    between atoms: _179  and  _180
REMARK   80  A    between atoms: _185  and  _187
REMARK   81  A    between atoms: _187  and  _188
REMARK   82  A    between atoms: _187  and  _190
REMARK   83  A    between atoms: _190  and  _191
REMARK   84  A    between atoms: _195  and  _196
REMARK   85  A    between atoms: _201  and  _203
REMARK   86  A    between atoms: _203  and  _204
REMARK   87  A    between atoms: _203  and  _206
REMARK   88  A    between atoms: _206  and  _207
REMARK   89  A    between atoms: _212  and  _213
REMARK   90  A    between atoms: _215  and  _217
REMARK   91  A    between atoms: _217  and  _218
REMARK   92  A    between atoms: _217  and  _220
REMARK   93  A    between atoms: _220  and  _221
REMARK   94  A    between atoms: _224  and  _226
REMARK   95  A    between atoms: _226  and  _227
REMARK   96  A    between atoms: _226  and  _229
REMARK   97  A    between atoms: _229  and  _230
REMARK   98  A    between atoms: _232  and  _234
REMARK   99  A    between atoms: _234  and  _235
REMARK  100  A    between atoms: _234  and  _237
REMARK  101  A    between atoms: _237  and  _238
REMARK  102  A    between atoms: _243  and  _245
REMARK  103  A    between atoms: _245  and  _246
REMARK  104  A    between atoms: _245  and  _248
REMARK  105  A    between atoms: _248  and  _249
REMARK  106  A    between atoms: _252  and  _254
REMARK  107  A    between atoms: _254  and  _255
REMARK  108  A    between atoms: _254  and  _257
REMARK  109  A    between atoms: _257  and  _258
REMARK  110  A    between atoms: _269  and  _270
REMARK  111  A    between atoms: _275  and  _277
REMARK  112  A    between atoms: _277  and  _278
REMARK  113  A    between atoms: _277  and  _280
REMARK  114  A    between atoms: _280  and  _281
REMARK  115  A    between atoms: _284  and  _286
REMARK  116  A    between atoms: _286  and  _287
REMARK  117  A    between atoms: _286  and  _289
REMARK  118  A    between atoms: _289  and  _290
REMARK  119  A    between atoms: _295  and  _297
REMARK  120  A    between atoms: _297  and  _298
REMARK  121  A    between atoms: _300  and  _302
REMARK  122  A    between atoms: _302  and  _303
REMARK  123  A    between atoms: _302  and  _305
REMARK  124  A    between atoms: _305  and  _306
REMARK  125  A    between atoms: _316  and  _318
REMARK  126  A    between atoms: _318  and  _319
REMARK  127  A    between atoms: _318  and  _321
REMARK  128  A    between atoms: _321  and  _322
REMARK  129  A    between atoms: _327  and  _328
REMARK  130  A    between atoms: _330  and  _332
REMARK  131  A    between atoms: _332  and  _333
REMARK  132  A    between atoms: _332  and  _335
REMARK  133  A    between atoms: _335  and  _336
REMARK  134  A    between atoms: _339  and  _341
REMARK  135  A    between atoms: _341  and  _342
REMARK  136  A    between atoms: _341  and  _344
REMARK  137  A    between atoms: _344  and  _345
REMARK  138  A    between atoms: _350  and  _352
REMARK  139  A    between atoms: _352  and  _353
REMARK  140  A    between atoms: _352  and  _355
REMARK  141  A    between atoms: _355  and  _356
REMARK  142  A    between atoms: _361  and  _363
REMARK  143  A    between atoms: _363  and  _364
REMARK  144  A    between atoms: _363  and  _366
REMARK  145  A    between atoms: _366  and  _367
REMARK  146  A    between atoms: _367  and  _368
REMARK  147  A    between atoms: _371  and  _373
REMARK  148  A    between atoms: _373  and  _374
REMARK  149  A    between atoms: _376  and  _378
REMARK  150  A    between atoms: _378  and  _379
REMARK  151  A    between atoms: _378  and  _381
REMARK  152  A    between atoms: _381  and  _382
REMARK  153  A    between atoms: _384  and  _386
REMARK  154  A    between atoms: _386  and  _387
REMARK  155  A    between atoms: _386  and  _389
REMARK  156  A    between atoms: _389  and  _390
REMARK  157  A    between atoms: _395  and  _396
REMARK  158  A    between atoms: _398  and  _400
REMARK  159  A    between atoms: _400  and  _401
REMARK  160  A    between atoms: _400  and  _403
REMARK  161  A    between atoms: _403  and  _404
REMARK  162  A    between atoms: _409  and  _411
REMARK  163  A    between atoms: _411  and  _412
REMARK  164  A    between atoms: _414  and  _416
REMARK  165  A    between atoms: _416  and  _417
REMARK  166  A    between atoms: _416  and  _419
REMARK  167  A    between atoms: _419  and  _420
REMARK  168  A    between atoms: _425  and  _427
REMARK  169  A    between atoms: _427  and  _428
REMARK  170  A    between atoms: _427  and  _430
REMARK  171  A    between atoms: _430  and  _431
REMARK  172  A    between atoms: _441  and  _443
REMARK  173  A    between atoms: _443  and  _444
REMARK  174  A    between atoms: _443  and  _446
REMARK  175  A    between atoms: _446  and  _447
REMARK  176  A    between atoms: _452  and  _454
REMARK  177  A    between atoms: _454  and  _455
REMARK  178  A    between atoms: _454  and  _457
REMARK  179  A    between atoms: _457  and  _458
REMARK  180  A    between atoms: _458  and  _459
REMARK  181  A    between atoms: _459  and  _460
REMARK  182  A    between atoms: _460  and  _461
REMARK  183  A    between atoms: _465  and  _467
REMARK  184  A    between atoms: _467  and  _468
REMARK  185  A    between atoms: _467  and  _470
REMARK  186  A    between atoms: _470  and  _471
REMARK  187  A    between atoms: _477  and  _479
REMARK  188  A    between atoms: _479  and  _480
REMARK  189  A    between atoms: _482  and  _484
REMARK  190  A    between atoms: _484  and  _485
REMARK  191  A    between atoms: _484  and  _487
REMARK  192  A    between atoms: _487  and  _488
REMARK  193  A    between atoms: _490  and  _492
REMARK  194  A    between atoms: _492  and  _493
REMARK  195  A    between atoms: _492  and  _495
REMARK  196  A    between atoms: _495  and  _496
REMARK  197  A    between atoms: _496  and  _497
REMARK  198  A    between atoms: _497  and  _498
REMARK  199  A    between atoms: _498  and  _499
REMARK  200  A    between atoms: _503  and  _505
REMARK  201  A    between atoms: _505  and  _506
REMARK  202  A    between atoms: _505  and  _508
REMARK  203  A    between atoms: _508  and  _509
REMARK  204  A    between atoms: _514  and  _516
REMARK  205  A    between atoms: _516  and  _517
REMARK  206  A    between atoms: _516  and  _519
REMARK  207  A    between atoms: _519  and  _520
REMARK  208  A    between atoms: _520  and  _521
REMARK  209  A    between atoms: _521  and  _522
REMARK  210  A    between atoms: _531  and  _533
REMARK  211  A    between atoms: _533  and  _534
REMARK  212  A    between atoms: _533  and  _536
REMARK  213  A    between atoms: _536  and  _537
REMARK  214  A    between atoms: _537  and  _538
REMARK  215  A    between atoms: _543  and  _545
REMARK  216  A    between atoms: _545  and  _546
REMARK  217  A    between atoms: _545  and  _548
REMARK  218  A    between atoms: _548  and  _549
REMARK  219  A    between atoms: _549  and  _550
REMARK  220  A    between atoms: _555  and  _557
REMARK  221  A    between atoms: _557  and  _558
REMARK  222  A    between atoms: _557  and  _560
REMARK  223  A    between atoms: _560  and  _561
REMARK  224  A    between atoms: _564  and  _566
REMARK  225  A    between atoms: _566  and  _567
REMARK  226  A    between atoms: _566  and  _569
REMARK  227  A    between atoms: _569  and  _570
REMARK  228  A    between atoms: _570  and  _571
REMARK  229  A    between atoms: _573  and  _575
REMARK  230  A    between atoms: _575  and  _576
REMARK  231  A    between atoms: _575  and  _578
REMARK  232  A    between atoms: _578  and  _579
REMARK  233  A    between atoms: _581  and  _583
REMARK  234  A    between atoms: _583  and  _584
REMARK  235  A    between atoms: _586  and  _588
REMARK  236  A    between atoms: _588  and  _589
REMARK  237  A    between atoms: _588  and  _591
REMARK  238  A    between atoms: _591  and  _592
REMARK  239  A    between atoms: _597  and  _598
REMARK  240  A    between atoms: _600  and  _602
REMARK  241  A    between atoms: _602  and  _603
REMARK  242  A    between atoms: _602  and  _605
REMARK  243  A    between atoms: _605  and  _606
REMARK  244  A    between atoms: _616  and  _618
REMARK  245  A    between atoms: _618  and  _619
REMARK  246  A    between atoms: _618  and  _621
REMARK  247  A    between atoms: _621  and  _622
REMARK  248  A    between atoms: _625  and  _627
REMARK  249  A    between atoms: _627  and  _628
REMARK  250  A    between atoms: _631  and  _633
REMARK  251  A    between atoms: _633  and  _634
REMARK  252  A    between atoms: _637  and  _639
REMARK  253  A    between atoms: _639  and  _640
REMARK  254  A    between atoms: _639  and  _642
REMARK  255  A    between atoms: _642  and  _643
REMARK  256  A    between atoms: _647  and  _648
REMARK                            x       y       z     vdW  Elec       q    Type
REMARK                         _______ _______ _______ _____ _____    ______ ____
ROOT
ATOM      1  O   HOH     1      36.173  65.996  18.911  0.00  0.00    +0.000 OA
ENDROOT
TORSDOF 0
REMARK  Name = ../refined-set-2016/4uac/4uac_pocket.pdb
REMARK  256 active torsions:
REMARK  status: ('A' for Active; 'I' for Inactive)
REMARK    1  A    between atoms: _1  and  _3
REMARK    2  A    between atoms: _3  and  _4
REMARK    3  A    between atoms: _7  and  _8
REMARK    4  A    between atoms: _13  and  _15
REMARK    5  A    between atoms: _15  and  _16
REMARK    6  A    between atoms: _19  and  _21
REMARK    7  A    between atoms: _21  and  _22
REMARK    8  A    between atoms: _21  and  _24
REMARK    9  A    between atoms: _24  and  _25
REMARK   10  A    between atoms: _25  and  _26
REMARK   11  A    between atoms: _29  and  _31
REMARK   12  A    between atoms: _31  and  _32
REMARK   13  A    between atoms: _31  and  _34
REMARK   14  A    between atoms: _34  and  _35
REMARK   15  A    between atoms: _38  and  _40
REMARK   16  A    between atoms: _40  and  _41
REMARK   17  A    between atoms: _40  and  _43
REMARK   18  A    between atoms: _43  and  _44
REMARK   19  A    between atoms: _46  and  _48
REMARK   20  A    between atoms: _48  and  _49
REMARK   21  A    between atoms: _48  and  _51
REMARK   22  A    between atoms: _51  and  _52
REMARK   23  A    between atoms: _54  and  _56
REMARK   24  A    between atoms: _56  and  _57
REMARK   25  A    between atoms: _56  and  _59
REMARK   26  A    between atoms: _59  and  _60
REMARK   27  A    between atoms: _60  and  _61
REMARK   28  A    between atoms: _64  and  _66
REMARK   29  A    between atoms: _66  and  _67
REMARK   30  A    between atoms: _66  and  _69
REMARK   31  A    between atoms: _69  and  _70
REMARK   32  A    between atoms: _72  and  _74
REMARK   33  A    between atoms: _74  and  _75
REMARK   34  A    between atoms: _74  and  _77
REMARK   35  A    between atoms: _77  and  _78
REMARK   36  A    between atoms: _81  and  _83
REMARK   37  A    between atoms: _83  and  _84
REMARK   38  A    between atoms: _87  and  _89
REMARK   39  A    between atoms: _89  and  _90
REMARK   40  A    between atoms: _89  and  _92
REMARK   41  A    between atoms: _92  and  _93
REMARK   42  A    between atoms: _93  and  _94
REMARK   43  A    between atoms: _94  and  _95
REMARK   44  A    between atoms: _95  and  _96
REMARK   45  A    between atoms: _100  and  _102
REMARK   46  A    between atoms: _102  and  _103
REMARK   47  A    between atoms: _102  and  _105
REMARK   48  A    between atoms: _105  and  _106
REMARK   49  A    between atoms: _109  and  _111
REMARK   50  A    between atoms: _111  and  _112
REMARK   51  A    between atoms: _111  and  _114
REMARK   52  A    between atoms: _117  and  _119
REMARK   53  A    between atoms: _119  and  _120
REMARK   54  A    between atoms: _119  and  _122
REMARK   55  A    between atoms: _122  and  _123
REMARK   56  A    between atoms: _126  and  _128
REMARK   57  A    between atoms: _128  and  _129
REMARK   58  A    between atoms: _128  and  _131
REMARK   59  A    between atoms: _131  and  _132
REMARK   60  A    between atoms: _132  and  _133
REMARK   61  A    between atoms: _135  and  _137
REMARK   62  A    between atoms: _137  and  _138
REMARK   63  A    between atoms: _137  and  _140
REMARK   64  A    between atoms: _140  and  _141
REMARK   65  A    between atoms: _147  and  _149
REMARK   66  A    between atoms: _149  and  _150
REMARK   67  A    between atoms: _153  and  _155
REMARK   68  A    between atoms: _155  and  _156
REMARK   69  A    between atoms: _155  and  _158
REMARK   70  A    between atoms: _158  and  _159
REMARK   71  A    between atoms: _164  and  _166
REMARK   72  A    between atoms: _166  and  _167
REMARK   73  A    between atoms: _166  and  _169
REMARK   74  A    between atoms: _169  and  _170
REMARK   75  A    between atoms: _173  and  _175
REMARK   76  A    between atoms: _175  and  _176
REMARK   77  A    between atoms: _175  and  _178
REMARK   78  A    between atoms: _178  and  _179
REMARK   79  A    between atoms: _179  and  _180
REMARK   80  A    between atoms: _185  and  _187
REMARK   81  A    between atoms: _187  and  _188
REMARK   82  A    between atoms: _187  and  _190
REMARK   83  A    between atoms: _190  and  _191
REMARK   84  A    between atoms: _195  and  _196
REMARK   85  A    between atoms: _201  and  _203
REMARK   86  A    between atoms: _203  and  _204
REMARK   87  A    between atoms: _203  and  _206
REMARK   88  A    between atoms: _206  and  _207
REMARK   89  A    between atoms: _212  and  _213
REMARK   90  A    between atoms: _215  and  _217
REMARK   91  A    between atoms: _217  and  _218
REMARK   92  A    between atoms: _217  and  _220
REMARK   93  A    between atoms: _220  and  _221
REMARK   94  A    between atoms: _224  and  _226
REMARK   95  A    between atoms: _226  and  _227
REMARK   96  A    between atoms: _226  and  _229
REMARK   97  A    between atoms: _229  and  _230
REMARK   98  A    between atoms: _232  and  _234
REMARK   99  A    between atoms: _234  and  _235
REMARK  100  A    between atoms: _234  and  _237
REMARK  101  A    between atoms: _237  and  _238
REMARK  102  A    between atoms: _243  and  _245
REMARK  103  A    between atoms: _245  and  _246
REMARK  104  A    between atoms: _245  and  _248
REMARK  105  A    between atoms: _248  and  _249
REMARK  106  A    between atoms: _252  and  _254
REMARK  107  A    between atoms: _254  and  _255
REMARK  108  A    between atoms: _254  and  _257
REMARK  109  A    between atoms: _257  and  _258
REMARK  110  A    between atoms: _269  and  _270
REMARK  111  A    between atoms: _275  and  _277
REMARK  112  A    between atoms: _277  and  _278
REMARK  113  A    between atoms: _277  and  _280
REMARK  114  A    between atoms: _280  and  _281
REMARK  115  A    between atoms: _284  and  _286
REMARK  116  A    between atoms: _286  and  _287
REMARK  117  A    between atoms: _286  and  _289
REMARK  118  A    between atoms: _289  and  _290
REMARK  119  A    between atoms: _295  and  _297
REMARK  120  A    between atoms: _297  and  _298
REMARK  121  A    between atoms: _300  and  _302
REMARK  122  A    between atoms: _302  and  _303
REMARK  123  A    between atoms: _302  and  _305
REMARK  124  A    between atoms: _305  and  _306
REMARK  125  A    between atoms: _316  and  _318
REMARK  126  A    between atoms: _318  and  _319
REMARK  127  A    between atoms: _318  and  _321
REMARK  128  A    between atoms: _321  and  _322
REMARK  129  A    between atoms: _327  and  _328
REMARK  130  A    between atoms: _330  and  _332
REMARK  131  A    between atoms: _332  and  _333
REMARK  132  A    between atoms: _332  and  _335
REMARK  133  A    between atoms: _335  and  _336
REMARK  134  A    between atoms: _339  and  _341
REMARK  135  A    between atoms: _341  and  _342
REMARK  136  A    between atoms: _341  and  _344
REMARK  137  A    between atoms: _344  and  _345
REMARK  138  A    between atoms: _350  and  _352
REMARK  139  A    between atoms: _352  and  _353
REMARK  140  A    between atoms: _352  and  _355
REMARK  141  A    between atoms: _355  and  _356
REMARK  142  A    between atoms: _361  and  _363
REMARK  143  A    between atoms: _363  and  _364
REMARK  144  A    between atoms: _363  and  _366
REMARK  145  A    between atoms: _366  and  _367
REMARK  146  A    between atoms: _367  and  _368
REMARK  147  A    between atoms: _371  and  _373
REMARK  148  A    between atoms: _373  and  _374
REMARK  149  A    between atoms: _376  and  _378
REMARK  150  A    between atoms: _378  and  _379
REMARK  151  A    between atoms: _378  and  _381
REMARK  152  A    between atoms: _381  and  _382
REMARK  153  A    between atoms: _384  and  _386
REMARK  154  A    between atoms: _386  and  _387
REMARK  155  A    between atoms: _386  and  _389
REMARK  156  A    between atoms: _389  and  _390
REMARK  157  A    between atoms: _395  and  _396
REMARK  158  A    between atoms: _398  and  _400
REMARK  159  A    between atoms: _400  and  _401
REMARK  160  A    between atoms: _400  and  _403
REMARK  161  A    between atoms: _403  and  _404
REMARK  162  A    between atoms: _409  and  _411
REMARK  163  A    between atoms: _411  and  _412
REMARK  164  A    between atoms: _414  and  _416
REMARK  165  A    between atoms: _416  and  _417
REMARK  166  A    between atoms: _416  and  _419
REMARK  167  A    between atoms: _419  and  _420
REMARK  168  A    between atoms: _425  and  _427
REMARK  169  A    between atoms: _427  and  _428
REMARK  170  A    between atoms: _427  and  _430
REMARK  171  A    between atoms: _430  and  _431
REMARK  172  A    between atoms: _441  and  _443
REMARK  173  A    between atoms: _443  and  _444
REMARK  174  A    between atoms: _443  and  _446
REMARK  175  A    between atoms: _446  and  _447
REMARK  176  A    between atoms: _452  and  _454
REMARK  177  A    between atoms: _454  and  _455
REMARK  178  A    between atoms: _454  and  _457
REMARK  179  A    between atoms: _457  and  _458
REMARK  180  A    between atoms: _458  and  _459
REMARK  181  A    between atoms: _459  and  _460
REMARK  182  A    between atoms: _460  and  _461
REMARK  183  A    between atoms: _465  and  _467
REMARK  184  A    between atoms: _467  and  _468
REMARK  185  A    between atoms: _467  and  _470
REMARK  186  A    between atoms: _470  and  _471
REMARK  187  A    between atoms: _477  and  _479
REMARK  188  A    between atoms: _479  and  _480
REMARK  189  A    between atoms: _482  and  _484
REMARK  190  A    between atoms: _484  and  _485
REMARK  191  A    between atoms: _484  and  _487
REMARK  192  A    between atoms: _487  and  _488
REMARK  193  A    between atoms: _490  and  _492
REMARK  194  A    between atoms: _492  and  _493
REMARK  195  A    between atoms: _492  and  _495
REMARK  196  A    between atoms: _495  and  _496
REMARK  197  A    between atoms: _496  and  _497
REMARK  198  A    between atoms: _497  and  _498
REMARK  199  A    between atoms: _498  and  _499
REMARK  200  A    between atoms: _503  and  _505
REMARK  201  A    between atoms: _505  and  _506
REMARK  202  A    between atoms: _505  and  _508
REMARK  203  A    between atoms: _508  and  _509
REMARK  204  A    between atoms: _514  and  _516
REMARK  205  A    between atoms: _516  and  _517
REMARK  206  A    between atoms: _516  and  _519
REMARK  207  A    between atoms: _519  and  _520
REMARK  208  A    between atoms: _520  and  _521
REMARK  209  A    between atoms: _521  and  _522
REMARK  210  A    between atoms: _531  and  _533
REMARK  211  A    between atoms: _533  and  _534
REMARK  212  A    between atoms: _533  and  _536
REMARK  213  A    between atoms: _536  and  _537
REMARK  214  A    between atoms: _537  and  _538
REMARK  215  A    between atoms: _543  and  _545
REMARK  216  A    between atoms: _545  and  _546
REMARK  217  A    between atoms: _545  and  _548
REMARK  218  A    between atoms: _548  and  _549
REMARK  219  A    between atoms: _549  and  _550
REMARK  220  A    between atoms: _555  and  _557
REMARK  221  A    between atoms: _557  and  _558
REMARK  222  A    between atoms: _557  and  _560
REMARK  223  A    between atoms: _560  and  _561
REMARK  224  A    between atoms: _564  and  _566
REMARK  225  A    between atoms: _566  and  _567
REMARK  226  A    between atoms: _566  and  _569
REMARK  227  A    between atoms: _569  and  _570
REMARK  228  A    between atoms: _570  and  _571
REMARK  229  A    between atoms: _573  and  _575
REMARK  230  A    between atoms: _575  and  _576
REMARK  231  A    between atoms: _575  and  _578
REMARK  232  A    between atoms: _578  and  _579
REMARK  233  A    between atoms: _581  and  _583
REMARK  234  A    between atoms: _583  and  _584
REMARK  235  A    between atoms: _586  and  _588
REMARK  236  A    between atoms: _588  and  _589
REMARK  237  A    between atoms: _588  and  _591
REMARK  238  A    between atoms: _591  and  _592
REMARK  239  A    between atoms: _597  and  _598
REMARK  240  A    between atoms: _600  and  _602
REMARK  241  A    between atoms: _602  and  _603
REMARK  242  A    between atoms: _602  and  _605
REMARK  243  A    between atoms: _605  and  _606
REMARK  244  A    between atoms: _616  and  _618
REMARK  245  A    between atoms: _618  and  _619
REMARK  246  A    between atoms: _618  and  _621
REMARK  247  A    between atoms: _621  and  _622
REMARK  248  A    between atoms: _625  and  _627
REMARK  249  A    between atoms: _627  and  _628
REMARK  250  A    between atoms: _631  and  _633
REMARK  251  A    between atoms: _633  and  _634
REMARK  252  A    between atoms: _637  and  _639
REMARK  253  A    between atoms: _639  and  _640
REMARK  254  A    between atoms: _639  and  _642
REMARK  255  A    between atoms: _642  and  _643
REMARK  256  A    between atoms: _647  and  _648
REMARK                            x       y       z     vdW  Elec       q    Type
REMARK                         _______ _______ _______ _____ _____    ______ ____
ROOT
ATOM      1  O   HOH     1      17.654  72.890  30.390  0.00  0.00    +0.000 OA
ENDROOT
TORSDOF 0
REMARK  Name = ../refined-set-2016/4uac/4uac_pocket.pdb
REMARK  256 active torsions:
REMARK  status: ('A' for Active; 'I' for Inactive)
REMARK    1  A    between atoms: _1  and  _3
REMARK    2  A    between atoms: _3  and  _4
REMARK    3  A    between atoms: _7  and  _8
REMARK    4  A    between atoms: _13  and  _15
REMARK    5  A    between atoms: _15  and  _16
REMARK    6  A    between atoms: _19  and  _21
REMARK    7  A    between atoms: _21  and  _22
REMARK    8  A    between atoms: _21  and  _24
REMARK    9  A    between atoms: _24  and  _25
REMARK   10  A    between atoms: _25  and  _26
REMARK   11  A    between atoms: _29  and  _31
REMARK   12  A    between atoms: _31  and  _32
REMARK   13  A    between atoms: _31  and  _34
REMARK   14  A    between atoms: _34  and  _35
REMARK   15  A    between atoms: _38  and  _40
REMARK   16  A    between atoms: _40  and  _41
REMARK   17  A    between atoms: _40  and  _43
REMARK   18  A    between atoms: _43  and  _44
REMARK   19  A    between atoms: _46  and  _48
REMARK   20  A    between atoms: _48  and  _49
REMARK   21  A    between atoms: _48  and  _51
REMARK   22  A    between atoms: _51  and  _52
REMARK   23  A    between atoms: _54  and  _56
REMARK   24  A    between atoms: _56  and  _57
REMARK   25  A    between atoms: _56  and  _59
REMARK   26  A    between atoms: _59  and  _60
REMARK   27  A    between atoms: _60  and  _61
REMARK   28  A    between atoms: _64  and  _66
REMARK   29  A    between atoms: _66  and  _67
REMARK   30  A    between atoms: _66  and  _69
REMARK   31  A    between atoms: _69  and  _70
REMARK   32  A    between atoms: _72  and  _74
REMARK   33  A    between atoms: _74  and  _75
REMARK   34  A    between atoms: _74  and  _77
REMARK   35  A    between atoms: _77  and  _78
REMARK   36  A    between atoms: _81  and  _83
REMARK   37  A    between atoms: _83  and  _84
REMARK   38  A    between atoms: _87  and  _89
REMARK   39  A    between atoms: _89  and  _90
REMARK   40  A    between atoms: _89  and  _92
REMARK   41  A    between atoms: _92  and  _93
REMARK   42  A    between atoms: _93  and  _94
REMARK   43  A    between atoms: _94  and  _95
REMARK   44  A    between atoms: _95  and  _96
REMARK   45  A    between atoms: _100  and  _102
REMARK   46  A    between atoms: _102  and  _103
REMARK   47  A    between atoms: _102  and  _105
REMARK   48  A    between atoms: _105  and  _106
REMARK   49  A    between atoms: _109  and  _111
REMARK   50  A    between atoms: _111  and  _112
REMARK   51  A    between atoms: _111  and  _114
REMARK   52  A    between atoms: _117  and  _119
REMARK   53  A    between atoms: _119  and  _120
REMARK   54  A    between atoms: _119  and  _122
REMARK   55  A    between atoms: _122  and  _123
REMARK   56  A    between atoms: _126  and  _128
REMARK   57  A    between atoms: _128  and  _129
REMARK   58  A    between atoms: _128  and  _131
REMARK   59  A    between atoms: _131  and  _132
REMARK   60  A    between atoms: _132  and  _133
REMARK   61  A    between atoms: _135  and  _137
REMARK   62  A    between atoms: _137  and  _138
REMARK   63  A    between atoms: _137  and  _140
REMARK   64  A    between atoms: _140  and  _141
REMARK   65  A    between atoms: _147  and  _149
REMARK   66  A    between atoms: _149  and  _150
REMARK   67  A    between atoms: _153  and  _155
REMARK   68  A    between atoms: _155  and  _156
REMARK   69  A    between atoms: _155  and  _158
REMARK   70  A    between atoms: _158  and  _159
REMARK   71  A    between atoms: _164  and  _166
REMARK   72  A    between atoms: _166  and  _167
REMARK   73  A    between atoms: _166  and  _169
REMARK   74  A    between atoms: _169  and  _170
REMARK   75  A    between atoms: _173  and  _175
REMARK   76  A    between atoms: _175  and  _176
REMARK   77  A    between atoms: _175  and  _178
REMARK   78  A    between atoms: _178  and  _179
REMARK   79  A    between atoms: _179  and  _180
REMARK   80  A    between atoms: _185  and  _187
REMARK   81  A    between atoms: _187  and  _188
REMARK   82  A    between atoms: _187  and  _190
REMARK   83  A    between atoms: _190  and  _191
REMARK   84  A    between atoms: _195  and  _196
REMARK   85  A    between atoms: _201  and  _203
REMARK   86  A    between atoms: _203  and  _204
REMARK   87  A    between atoms: _203  and  _206
REMARK   88  A    between atoms: _206  and  _207
REMARK   89  A    between atoms: _212  and  _213
REMARK   90  A    between atoms: _215  and  _217
REMARK   91  A    between atoms: _217  and  _218
REMARK   92  A    between atoms: _217  and  _220
REMARK   93  A    between atoms: _220  and  _221
REMARK   94  A    between atoms: _224  and  _226
REMARK   95  A    between atoms: _226  and  _227
REMARK   96  A    between atoms: _226  and  _229
REMARK   97  A    between atoms: _229  and  _230
REMARK   98  A    between atoms: _232  and  _234
REMARK   99  A    between atoms: _234  and  _235
REMARK  100  A    between atoms: _234  and  _237
REMARK  101  A    between atoms: _237  and  _238
REMARK  102  A    between atoms: _243  and  _245
REMARK  103  A    between atoms: _245  and  _246
REMARK  104  A    between atoms: _245  and  _248
REMARK  105  A    between atoms: _248  and  _249
REMARK  106  A    between atoms: _252  and  _254
REMARK  107  A    between atoms: _254  and  _255
REMARK  108  A    between atoms: _254  and  _257
REMARK  109  A    between atoms: _257  and  _258
REMARK  110  A    between atoms: _269  and  _270
REMARK  111  A    between atoms: _275  and  _277
REMARK  112  A    between atoms: _277  and  _278
REMARK  113  A    between atoms: _277  and  _280
REMARK  114  A    between atoms: _280  and  _281
REMARK  115  A    between atoms: _284  and  _286
REMARK  116  A    between atoms: _286  and  _287
REMARK  117  A    between atoms: _286  and  _289
REMARK  118  A    between atoms: _289  and  _290
REMARK  119  A    between atoms: _295  and  _297
REMARK  120  A    between atoms: _297  and  _298
REMARK  121  A    between atoms: _300  and  _302
REMARK  122  A    between atoms: _302  and  _303
REMARK  123  A    between atoms: _302  and  _305
REMARK  124  A    between atoms: _305  and  _306
REMARK  125  A    between atoms: _316  and  _318
REMARK  126  A    between atoms: _318  and  _319
REMARK  127  A    between atoms: _318  and  _321
REMARK  128  A    between atoms: _321  and  _322
REMARK  129  A    between atoms: _327  and  _328
REMARK  130  A    between atoms: _330  and  _332
REMARK  131  A    between atoms: _332  and  _333
REMARK  132  A    between atoms: _332  and  _335
REMARK  133  A    between atoms: _335  and  _336
REMARK  134  A    between atoms: _339  and  _341
REMARK  135  A    between atoms: _341  and  _342
REMARK  136  A    between atoms: _341  and  _344
REMARK  137  A    between atoms: _344  and  _345
REMARK  138  A    between atoms: _350  and  _352
REMARK  139  A    between atoms: _352  and  _353
REMARK  140  A    between atoms: _352  and  _355
REMARK  141  A    between atoms: _355  and  _356
REMARK  142  A    between atoms: _361  and  _363
REMARK  143  A    between atoms: _363  and  _364
REMARK  144  A    between atoms: _363  and  _366
REMARK  145  A    between atoms: _366  and  _367
REMARK  146  A    between atoms: _367  and  _368
REMARK  147  A    between atoms: _371  and  _373
REMARK  148  A    between atoms: _373  and  _374
REMARK  149  A    between atoms: _376  and  _378
REMARK  150  A    between atoms: _378  and  _379
REMARK  151  A    between atoms: _378  and  _381
REMARK  152  A    between atoms: _381  and  _382
REMARK  153  A    between atoms: _384  and  _386
REMARK  154  A    between atoms: _386  and  _387
REMARK  155  A    between atoms: _386  and  _389
REMARK  156  A    between atoms: _389  and  _390
REMARK  157  A    between atoms: _395  and  _396
REMARK  158  A    between atoms: _398  and  _400
REMARK  159  A    between atoms: _400  and  _401
REMARK  160  A    between atoms: _400  and  _403
REMARK  161  A    between atoms: _403  and  _404
REMARK  162  A    between atoms: _409  and  _411
REMARK  163  A    between atoms: _411  and  _412
REMARK  164  A    between atoms: _414  and  _416
REMARK  165  A    between atoms: _416  and  _417
REMARK  166  A    between atoms: _416  and  _419
REMARK  167  A    between atoms: _419  and  _420
REMARK  168  A    between atoms: _425  and  _427
REMARK  169  A    between atoms: _427  and  _428
REMARK  170  A    between atoms: _427  and  _430
REMARK  171  A    between atoms: _430  and  _431
REMARK  172  A    between atoms: _441  and  _443
REMARK  173  A    between atoms: _443  and  _444
REMARK  174  A    between atoms: _443  and  _446
REMARK  175  A    between atoms: _446  and  _447
REMARK  176  A    between atoms: _452  and  _454
REMARK  177  A    between atoms: _454  and  _455
REMARK  178  A    between atoms: _454  and  _457
REMARK  179  A    between atoms: _457  and  _458
REMARK  180  A    between atoms: _458  and  _459
REMARK  181  A    between atoms: _459  and  _460
REMARK  182  A    between atoms: _460  and  _461
REMARK  183  A    between atoms: _465  and  _467
REMARK  184  A    between atoms: _467  and  _468
REMARK  185  A    between atoms: _467  and  _470
REMARK  186  A    between atoms: _470  and  _471
REMARK  187  A    between atoms: _477  and  _479
REMARK  188  A    between atoms: _479  and  _480
REMARK  189  A    between atoms: _482  and  _484
REMARK  190  A    between atoms: _484  and  _485
REMARK  191  A    between atoms: _484  and  _487
REMARK  192  A    between atoms: _487  and  _488
REMARK  193  A    between atoms: _490  and  _492
REMARK  194  A    between atoms: _492  and  _493
REMARK  195  A    between atoms: _492  and  _495
REMARK  196  A    between atoms: _495  and  _496
REMARK  197  A    between atoms: _496  and  _497
REMARK  198  A    between atoms: _497  and  _498
REMARK  199  A    between atoms: _498  and  _499
REMARK  200  A    between atoms: _503  and  _505
REMARK  201  A    between atoms: _505  and  _506
REMARK  202  A    between atoms: _505  and  _508
REMARK  203  A    between atoms: _508  and  _509
REMARK  204  A    between atoms: _514  and  _516
REMARK  205  A    between atoms: _516  and  _517
REMARK  206  A    between atoms: _516  and  _519
REMARK  207  A    between atoms: _519  and  _520
REMARK  208  A    between atoms: _520  and  _521
REMARK  209  A    between atoms: _521  and  _522
REMARK  210  A    between atoms: _531  and  _533
REMARK  211  A    between atoms: _533  and  _534
REMARK  212  A    between atoms: _533  and  _536
REMARK  213  A    between atoms: _536  and  _537
REMARK  214  A    between atoms: _537  and  _538
REMARK  215  A    between atoms: _543  and  _545
REMARK  216  A    between atoms: _545  and  _546
REMARK  217  A    between atoms: _545  and  _548
REMARK  218  A    between atoms: _548  and  _549
REMARK  219  A    between atoms: _549  and  _550
REMARK  220  A    between atoms: _555  and  _557
REMARK  221  A    between atoms: _557  and  _558
REMARK  222  A    between atoms: _557  and  _560
REMARK  223  A    between atoms: _560  and  _561
REMARK  224  A    between atoms: _564  and  _566
REMARK  225  A    between atoms: _566  and  _567
REMARK  226  A    between atoms: _566  and  _569
REMARK  227  A    between atoms: _569  and  _570
REMARK  228  A    between atoms: _570  and  _571
REMARK  229  A    between atoms: _573  and  _575
REMARK  230  A    between atoms: _575  and  _576
REMARK  231  A    between atoms: _575  and  _578
REMARK  232  A    between atoms: _578  and  _579
REMARK  233  A    between atoms: _581  and  _583
REMARK  234  A    between atoms: _583  and  _584
REMARK  235  A    between atoms: _586  and  _588
REMARK  236  A    between atoms: _588  and  _589
REMARK  237  A    between atoms: _588  and  _591
REMARK  238  A    between atoms: _591  and  _592
REMARK  239  A    between atoms: _597  and  _598
REMARK  240  A    between atoms: _600  and  _602
REMARK  241  A    between atoms: _602  and  _603
REMARK  242  A    between atoms: _602  and  _605
REMARK  243  A    between atoms: _605  and  _606
REMARK  244  A    between atoms: _616  and  _618
REMARK  245  A    between atoms: _618  and  _619
REMARK  246  A    between atoms: _618  and  _621
REMARK  247  A    between atoms: _621  and  _622
REMARK  248  A    between atoms: _625  and  _627
REMARK  249  A    between atoms: _627  and  _628
REMARK  250  A    between atoms: _631  and  _633
REMARK  251  A    between atoms: _633  and  _634
REMARK  252  A    between atoms: _637  and  _639
REMARK  253  A    between atoms: _639  and  _640
REMARK  254  A    between atoms: _639  and  _642
REMARK  255  A    between atoms: _642  and  _643
REMARK  256  A    between atoms: _647  and  _648
REMARK                            x       y       z     vdW  Elec       q    Type
REMARK                         _______ _______ _______ _____ _____    ______ ____
ROOT
ATOM      1  O   HOH     1      34.209  56.491  24.988  0.00  0.00    +0.000 OA
ENDROOT
TORSDOF 0
REMARK  Name = ../refined-set-2016/4uac/4uac_pocket.pdb
REMARK  256 active torsions:
REMARK  status: ('A' for Active; 'I' for Inactive)
REMARK    1  A    between atoms: _1  and  _3
REMARK    2  A    between atoms: _3  and  _4
REMARK    3  A    between atoms: _7  and  _8
REMARK    4  A    between atoms: _13  and  _15
REMARK    5  A    between atoms: _15  and  _16
REMARK    6  A    between atoms: _19  and  _21
REMARK    7  A    between atoms: _21  and  _22
REMARK    8  A    between atoms: _21  and  _24
REMARK    9  A    between atoms: _24  and  _25
REMARK   10  A    between atoms: _25  and  _26
REMARK   11  A    between atoms: _29  and  _31
REMARK   12  A    between atoms: _31  and  _32
REMARK   13  A    between atoms: _31  and  _34
REMARK   14  A    between atoms: _34  and  _35
REMARK   15  A    between atoms: _38  and  _40
REMARK   16  A    between atoms: _40  and  _41
REMARK   17  A    between atoms: _40  and  _43
REMARK   18  A    between atoms: _43  and  _44
REMARK   19  A    between atoms: _46  and  _48
REMARK   20  A    between atoms: _48  and  _49
REMARK   21  A    between atoms: _48  and  _51
REMARK   22  A    between atoms: _51  and  _52
REMARK   23  A    between atoms: _54  and  _56
REMARK   24  A    between atoms: _56  and  _57
REMARK   25  A    between atoms: _56  and  _59
REMARK   26  A    between atoms: _59  and  _60
REMARK   27  A    between atoms: _60  and  _61
REMARK   28  A    between atoms: _64  and  _66
REMARK   29  A    between atoms: _66  and  _67
REMARK   30  A    between atoms: _66  and  _69
REMARK   31  A    between atoms: _69  and  _70
REMARK   32  A    between atoms: _72  and  _74
REMARK   33  A    between atoms: _74  and  _75
REMARK   34  A    between atoms: _74  and  _77
REMARK   35  A    between atoms: _77  and  _78
REMARK   36  A    between atoms: _81  and  _83
REMARK   37  A    between atoms: _83  and  _84
REMARK   38  A    between atoms: _87  and  _89
REMARK   39  A    between atoms: _89  and  _90
REMARK   40  A    between atoms: _89  and  _92
REMARK   41  A    between atoms: _92  and  _93
REMARK   42  A    between atoms: _93  and  _94
REMARK   43  A    between atoms: _94  and  _95
REMARK   44  A    between atoms: _95  and  _96
REMARK   45  A    between atoms: _100  and  _102
REMARK   46  A    between atoms: _102  and  _103
REMARK   47  A    between atoms: _102  and  _105
REMARK   48  A    between atoms: _105  and  _106
REMARK   49  A    between atoms: _109  and  _111
REMARK   50  A    between atoms: _111  and  _112
REMARK   51  A    between atoms: _111  and  _114
REMARK   52  A    between atoms: _117  and  _119
REMARK   53  A    between atoms: _119  and  _120
REMARK   54  A    between atoms: _119  and  _122
REMARK   55  A    between atoms: _122  and  _123
REMARK   56  A    between atoms: _126  and  _128
REMARK   57  A    between atoms: _128  and  _129
REMARK   58  A    between atoms: _128  and  _131
REMARK   59  A    between atoms: _131  and  _132
REMARK   60  A    between atoms: _132  and  _133
REMARK   61  A    between atoms: _135  and  _137
REMARK   62  A    between atoms: _137  and  _138
REMARK   63  A    between atoms: _137  and  _140
REMARK   64  A    between atoms: _140  and  _141
REMARK   65  A    between atoms: _147  and  _149
REMARK   66  A    between atoms: _149  and  _150
REMARK   67  A    between atoms: _153  and  _155
REMARK   68  A    between atoms: _155  and  _156
REMARK   69  A    between atoms: _155  and  _158
REMARK   70  A    between atoms: _158  and  _159
REMARK   71  A    between atoms: _164  and  _166
REMARK   72  A    between atoms: _166  and  _167
REMARK   73  A    between atoms: _166  and  _169
REMARK   74  A    between atoms: _169  and  _170
REMARK   75  A    between atoms: _173  and  _175
REMARK   76  A    between atoms: _175  and  _176
REMARK   77  A    between atoms: _175  and  _178
REMARK   78  A    between atoms: _178  and  _179
REMARK   79  A    between atoms: _179  and  _180
REMARK   80  A    between atoms: _185  and  _187
REMARK   81  A    between atoms: _187  and  _188
REMARK   82  A    between atoms: _187  and  _190
REMARK   83  A    between atoms: _190  and  _191
REMARK   84  A    between atoms: _195  and  _196
REMARK   85  A    between atoms: _201  and  _203
REMARK   86  A    between atoms: _203  and  _204
REMARK   87  A    between atoms: _203  and  _206
REMARK   88  A    between atoms: _206  and  _207
REMARK   89  A    between atoms: _212  and  _213
REMARK   90  A    between atoms: _215  and  _217
REMARK   91  A    between atoms: _217  and  _218
REMARK   92  A    between atoms: _217  and  _220
REMARK   93  A    between atoms: _220  and  _221
REMARK   94  A    between atoms: _224  and  _226
REMARK   95  A    between atoms: _226  and  _227
REMARK   96  A    between atoms: _226  and  _229
REMARK   97  A    between atoms: _229  and  _230
REMARK   98  A    between atoms: _232  and  _234
REMARK   99  A    between atoms: _234  and  _235
REMARK  100  A    between atoms: _234  and  _237
REMARK  101  A    between atoms: _237  and  _238
REMARK  102  A    between atoms: _243  and  _245
REMARK  103  A    between atoms: _245  and  _246
REMARK  104  A    between atoms: _245  and  _248
REMARK  105  A    between atoms: _248  and  _249
REMARK  106  A    between atoms: _252  and  _254
REMARK  107  A    between atoms: _254  and  _255
REMARK  108  A    between atoms: _254  and  _257
REMARK  109  A    between atoms: _257  and  _258
REMARK  110  A    between atoms: _269  and  _270
REMARK  111  A    between atoms: _275  and  _277
REMARK  112  A    between atoms: _277  and  _278
REMARK  113  A    between atoms: _277  and  _280
REMARK  114  A    between atoms: _280  and  _281
REMARK  115  A    between atoms: _284  and  _286
REMARK  116  A    between atoms: _286  and  _287
REMARK  117  A    between atoms: _286  and  _289
REMARK  118  A    between atoms: _289  and  _290
REMARK  119  A    between atoms: _295  and  _297
REMARK  120  A    between atoms: _297  and  _298
REMARK  121  A    between atoms: _300  and  _302
REMARK  122  A    between atoms: _302  and  _303
REMARK  123  A    between atoms: _302  and  _305
REMARK  124  A    between atoms: _305  and  _306
REMARK  125  A    between atoms: _316  and  _318
REMARK  126  A    between atoms: _318  and  _319
REMARK  127  A    between atoms: _318  and  _321
REMARK  128  A    between atoms: _321  and  _322
REMARK  129  A    between atoms: _327  and  _328
REMARK  130  A    between atoms: _330  and  _332
REMARK  131  A    between atoms: _332  and  _333
REMARK  132  A    between atoms: _332  and  _335
REMARK  133  A    between atoms: _335  and  _336
REMARK  134  A    between atoms: _339  and  _341
REMARK  135  A    between atoms: _341  and  _342
REMARK  136  A    between atoms: _341  and  _344
REMARK  137  A    between atoms: _344  and  _345
REMARK  138  A    between atoms: _350  and  _352
REMARK  139  A    between atoms: _352  and  _353
REMARK  140  A    between atoms: _352  and  _355
REMARK  141  A    between atoms: _355  and  _356
REMARK  142  A    between atoms: _361  and  _363
REMARK  143  A    between atoms: _363  and  _364
REMARK  144  A    between atoms: _363  and  _366
REMARK  145  A    between atoms: _366  and  _367
REMARK  146  A    between atoms: _367  and  _368
REMARK  147  A    between atoms: _371  and  _373
REMARK  148  A    between atoms: _373  and  _374
REMARK  149  A    between atoms: _376  and  _378
REMARK  150  A    between atoms: _378  and  _379
REMARK  151  A    between atoms: _378  and  _381
REMARK  152  A    between atoms: _381  and  _382
REMARK  153  A    between atoms: _384  and  _386
REMARK  154  A    between atoms: _386  and  _387
REMARK  155  A    between atoms: _386  and  _389
REMARK  156  A    between atoms: _389  and  _390
REMARK  157  A    between atoms: _395  and  _396
REMARK  158  A    between atoms: _398  and  _400
REMARK  159  A    between atoms: _400  and  _401
REMARK  160  A    between atoms: _400  and  _403
REMARK  161  A    between atoms: _403  and  _404
REMARK  162  A    between atoms: _409  and  _411
REMARK  163  A    between atoms: _411  and  _412
REMARK  164  A    between atoms: _414  and  _416
REMARK  165  A    between atoms: _416  and  _417
REMARK  166  A    between atoms: _416  and  _419
REMARK  167  A    between atoms: _419  and  _420
REMARK  168  A    between atoms: _425  and  _427
REMARK  169  A    between atoms: _427  and  _428
REMARK  170  A    between atoms: _427  and  _430
REMARK  171  A    between atoms: _430  and  _431
REMARK  172  A    between atoms: _441  and  _443
REMARK  173  A    between atoms: _443  and  _444
REMARK  174  A    between atoms: _443  and  _446
REMARK  175  A    between atoms: _446  and  _447
REMARK  176  A    between atoms: _452  and  _454
REMARK  177  A    between atoms: _454  and  _455
REMARK  178  A    between atoms: _454  and  _457
REMARK  179  A    between atoms: _457  and  _458
REMARK  180  A    between atoms: _458  and  _459
REMARK  181  A    between atoms: _459  and  _460
REMARK  182  A    between atoms: _460  and  _461
REMARK  183  A    between atoms: _465  and  _467
REMARK  184  A    between atoms: _467  and  _468
REMARK  185  A    between atoms: _467  and  _470
REMARK  186  A    between atoms: _470  and  _471
REMARK  187  A    between atoms: _477  and  _479
REMARK  188  A    between atoms: _479  and  _480
REMARK  189  A    between atoms: _482  and  _484
REMARK  190  A    between atoms: _484  and  _485
REMARK  191  A    between atoms: _484  and  _487
REMARK  192  A    between atoms: _487  and  _488
REMARK  193  A    between atoms: _490  and  _492
REMARK  194  A    between atoms: _492  and  _493
REMARK  195  A    between atoms: _492  and  _495
REMARK  196  A    between atoms: _495  and  _496
REMARK  197  A    between atoms: _496  and  _497
REMARK  198  A    between atoms: _497  and  _498
REMARK  199  A    between atoms: _498  and  _499
REMARK  200  A    between atoms: _503  and  _505
REMARK  201  A    between atoms: _505  and  _506
REMARK  202  A    between atoms: _505  and  _508
REMARK  203  A    between atoms: _508  and  _509
REMARK  204  A    between atoms: _514  and  _516
REMARK  205  A    between atoms: _516  and  _517
REMARK  206  A    between atoms: _516  and  _519
REMARK  207  A    between atoms: _519  and  _520
REMARK  208  A    between atoms: _520  and  _521
REMARK  209  A    between atoms: _521  and  _522
REMARK  210  A    between atoms: _531  and  _533
REMARK  211  A    between atoms: _533  and  _534
REMARK  212  A    between atoms: _533  and  _536
REMARK  213  A    between atoms: _536  and  _537
REMARK  214  A    between atoms: _537  and  _538
REMARK  215  A    between atoms: _543  and  _545
REMARK  216  A    between atoms: _545  and  _546
REMARK  217  A    between atoms: _545  and  _548
REMARK  218  A    between atoms: _548  and  _549
REMARK  219  A    between atoms: _549  and  _550
REMARK  220  A    between atoms: _555  and  _557
REMARK  221  A    between atoms: _557  and  _558
REMARK  222  A    between atoms: _557  and  _560
REMARK  223  A    between atoms: _560  and  _561
REMARK  224  A    between atoms: _564  and  _566
REMARK  225  A    between atoms: _566  and  _567
REMARK  226  A    between atoms: _566  and  _569
REMARK  227  A    between atoms: _569  and  _570
REMARK  228  A    between atoms: _570  and  _571
REMARK  229  A    between atoms: _573  and  _575
REMARK  230  A    between atoms: _575  and  _576
REMARK  231  A    between atoms: _575  and  _578
REMARK  232  A    between atoms: _578  and  _579
REMARK  233  A    between atoms: _581  and  _583
REMARK  234  A    between atoms: _583  and  _584
REMARK  235  A    between atoms: _586  and  _588
REMARK  236  A    between atoms: _588  and  _589
REMARK  237  A    between atoms: _588  and  _591
REMARK  238  A    between atoms: _591  and  _592
REMARK  239  A    between atoms: _597  and  _598
REMARK  240  A    between atoms: _600  and  _602
REMARK  241  A    between atoms: _602  and  _603
REMARK  242  A    between atoms: _602  and  _605
REMARK  243  A    between atoms: _605  and  _606
REMARK  244  A    between atoms: _616  and  _618
REMARK  245  A    between atoms: _618  and  _619
REMARK  246  A    between atoms: _618  and  _621
REMARK  247  A    between atoms: _621  and  _622
REMARK  248  A    between atoms: _625  and  _627
REMARK  249  A    between atoms: _627  and  _628
REMARK  250  A    between atoms: _631  and  _633
REMARK  251  A    between atoms: _633  and  _634
REMARK  252  A    between atoms: _637  and  _639
REMARK  253  A    between atoms: _639  and  _640
REMARK  254  A    between atoms: _639  and  _642
REMARK  255  A    between atoms: _642  and  _643
REMARK  256  A    between atoms: _647  and  _648
REMARK                            x       y       z     vdW  Elec       q    Type
REMARK                         _______ _______ _______ _____ _____    ______ ____
ROOT
ATOM      1  O   HOH     1      19.479  70.506  27.535  0.00  0.00    +0.000 OA
ENDROOT
TORSDOF 0
REMARK  Name = ../refined-set-2016/4uac/4uac_pocket.pdb
REMARK  256 active torsions:
REMARK  status: ('A' for Active; 'I' for Inactive)
REMARK    1  A    between atoms: _1  and  _3
REMARK    2  A    between atoms: _3  and  _4
REMARK    3  A    between atoms: _7  and  _8
REMARK    4  A    between atoms: _13  and  _15
REMARK    5  A    between atoms: _15  and  _16
REMARK    6  A    between atoms: _19  and  _21
REMARK    7  A    between atoms: _21  and  _22
REMARK    8  A    between atoms: _21  and  _24
REMARK    9  A    between atoms: _24  and  _25
REMARK   10  A    between atoms: _25  and  _26
REMARK   11  A    between atoms: _29  and  _31
REMARK   12  A    between atoms: _31  and  _32
REMARK   13  A    between atoms: _31  and  _34
REMARK   14  A    between atoms: _34  and  _35
REMARK   15  A    between atoms: _38  and  _40
REMARK   16  A    between atoms: _40  and  _41
REMARK   17  A    between atoms: _40  and  _43
REMARK   18  A    between atoms: _43  and  _44
REMARK   19  A    between atoms: _46  and  _48
REMARK   20  A    between atoms: _48  and  _49
REMARK   21  A    between atoms: _48  and  _51
REMARK   22  A    between atoms: _51  and  _52
REMARK   23  A    between atoms: _54  and  _56
REMARK   24  A    between atoms: _56  and  _57
REMARK   25  A    between atoms: _56  and  _59
REMARK   26  A    between atoms: _59  and  _60
REMARK   27  A    between atoms: _60  and  _61
REMARK   28  A    between atoms: _64  and  _66
REMARK   29  A    between atoms: _66  and  _67
REMARK   30  A    between atoms: _66  and  _69
REMARK   31  A    between atoms: _69  and  _70
REMARK   32  A    between atoms: _72  and  _74
REMARK   33  A    between atoms: _74  and  _75
REMARK   34  A    between atoms: _74  and  _77
REMARK   35  A    between atoms: _77  and  _78
REMARK   36  A    between atoms: _81  and  _83
REMARK   37  A    between atoms: _83  and  _84
REMARK   38  A    between atoms: _87  and  _89
REMARK   39  A    between atoms: _89  and  _90
REMARK   40  A    between atoms: _89  and  _92
REMARK   41  A    between atoms: _92  and  _93
REMARK   42  A    between atoms: _93  and  _94
REMARK   43  A    between atoms: _94  and  _95
REMARK   44  A    between atoms: _95  and  _96
REMARK   45  A    between atoms: _100  and  _102
REMARK   46  A    between atoms: _102  and  _103
REMARK   47  A    between atoms: _102  and  _105
REMARK   48  A    between atoms: _105  and  _106
REMARK   49  A    between atoms: _109  and  _111
REMARK   50  A    between atoms: _111  and  _112
REMARK   51  A    between atoms: _111  and  _114
REMARK   52  A    between atoms: _117  and  _119
REMARK   53  A    between atoms: _119  and  _120
REMARK   54  A    between atoms: _119  and  _122
REMARK   55  A    between atoms: _122  and  _123
REMARK   56  A    between atoms: _126  and  _128
REMARK   57  A    between atoms: _128  and  _129
REMARK   58  A    between atoms: _128  and  _131
REMARK   59  A    between atoms: _131  and  _132
REMARK   60  A    between atoms: _132  and  _133
REMARK   61  A    between atoms: _135  and  _137
REMARK   62  A    between atoms: _137  and  _138
REMARK   63  A    between atoms: _137  and  _140
REMARK   64  A    between atoms: _140  and  _141
REMARK   65  A    between atoms: _147  and  _149
REMARK   66  A    between atoms: _149  and  _150
REMARK   67  A    between atoms: _153  and  _155
REMARK   68  A    between atoms: _155  and  _156
REMARK   69  A    between atoms: _155  and  _158
REMARK   70  A    between atoms: _158  and  _159
REMARK   71  A    between atoms: _164  and  _166
REMARK   72  A    between atoms: _166  and  _167
REMARK   73  A    between atoms: _166  and  _169
REMARK   74  A    between atoms: _169  and  _170
REMARK   75  A    between atoms: _173  and  _175
REMARK   76  A    between atoms: _175  and  _176
REMARK   77  A    between atoms: _175  and  _178
REMARK   78  A    between atoms: _178  and  _179
REMARK   79  A    between atoms: _179  and  _180
REMARK   80  A    between atoms: _185  and  _187
REMARK   81  A    between atoms: _187  and  _188
REMARK   82  A    between atoms: _187  and  _190
REMARK   83  A    between atoms: _190  and  _191
REMARK   84  A    between atoms: _195  and  _196
REMARK   85  A    between atoms: _201  and  _203
REMARK   86  A    between atoms: _203  and  _204
REMARK   87  A    between atoms: _203  and  _206
REMARK   88  A    between atoms: _206  and  _207
REMARK   89  A    between atoms: _212  and  _213
REMARK   90  A    between atoms: _215  and  _217
REMARK   91  A    between atoms: _217  and  _218
REMARK   92  A    between atoms: _217  and  _220
REMARK   93  A    between atoms: _220  and  _221
REMARK   94  A    between atoms: _224  and  _226
REMARK   95  A    between atoms: _226  and  _227
REMARK   96  A    between atoms: _226  and  _229
REMARK   97  A    between atoms: _229  and  _230
REMARK   98  A    between atoms: _232  and  _234
REMARK   99  A    between atoms: _234  and  _235
REMARK  100  A    between atoms: _234  and  _237
REMARK  101  A    between atoms: _237  and  _238
REMARK  102  A    between atoms: _243  and  _245
REMARK  103  A    between atoms: _245  and  _246
REMARK  104  A    between atoms: _245  and  _248
REMARK  105  A    between atoms: _248  and  _249
REMARK  106  A    between atoms: _252  and  _254
REMARK  107  A    between atoms: _254  and  _255
REMARK  108  A    between atoms: _254  and  _257
REMARK  109  A    between atoms: _257  and  _258
REMARK  110  A    between atoms: _269  and  _270
REMARK  111  A    between atoms: _275  and  _277
REMARK  112  A    between atoms: _277  and  _278
REMARK  113  A    between atoms: _277  and  _280
REMARK  114  A    between atoms: _280  and  _281
REMARK  115  A    between atoms: _284  and  _286
REMARK  116  A    between atoms: _286  and  _287
REMARK  117  A    between atoms: _286  and  _289
REMARK  118  A    between atoms: _289  and  _290
REMARK  119  A    between atoms: _295  and  _297
REMARK  120  A    between atoms: _297  and  _298
REMARK  121  A    between atoms: _300  and  _302
REMARK  122  A    between atoms: _302  and  _303
REMARK  123  A    between atoms: _302  and  _305
REMARK  124  A    between atoms: _305  and  _306
REMARK  125  A    between atoms: _316  and  _318
REMARK  126  A    between atoms: _318  and  _319
REMARK  127  A    between atoms: _318  and  _321
REMARK  128  A    between atoms: _321  and  _322
REMARK  129  A    between atoms: _327  and  _328
REMARK  130  A    between atoms: _330  and  _332
REMARK  131  A    between atoms: _332  and  _333
REMARK  132  A    between atoms: _332  and  _335
REMARK  133  A    between atoms: _335  and  _336
REMARK  134  A    between atoms: _339  and  _341
REMARK  135  A    between atoms: _341  and  _342
REMARK  136  A    between atoms: _341  and  _344
REMARK  137  A    between atoms: _344  and  _345
REMARK  138  A    between atoms: _350  and  _352
REMARK  139  A    between atoms: _352  and  _353
REMARK  140  A    between atoms: _352  and  _355
REMARK  141  A    between atoms: _355  and  _356
REMARK  142  A    between atoms: _361  and  _363
REMARK  143  A    between atoms: _363  and  _364
REMARK  144  A    between atoms: _363  and  _366
REMARK  145  A    between atoms: _366  and  _367
REMARK  146  A    between atoms: _367  and  _368
REMARK  147  A    between atoms: _371  and  _373
REMARK  148  A    between atoms: _373  and  _374
REMARK  149  A    between atoms: _376  and  _378
REMARK  150  A    between atoms: _378  and  _379
REMARK  151  A    between atoms: _378  and  _381
REMARK  152  A    between atoms: _381  and  _382
REMARK  153  A    between atoms: _384  and  _386
REMARK  154  A    between atoms: _386  and  _387
REMARK  155  A    between atoms: _386  and  _389
REMARK  156  A    between atoms: _389  and  _390
REMARK  157  A    between atoms: _395  and  _396
REMARK  158  A    between atoms: _398  and  _400
REMARK  159  A    between atoms: _400  and  _401
REMARK  160  A    between atoms: _400  and  _403
REMARK  161  A    between atoms: _403  and  _404
REMARK  162  A    between atoms: _409  and  _411
REMARK  163  A    between atoms: _411  and  _412
REMARK  164  A    between atoms: _414  and  _416
REMARK  165  A    between atoms: _416  and  _417
REMARK  166  A    between atoms: _416  and  _419
REMARK  167  A    between atoms: _419  and  _420
REMARK  168  A    between atoms: _425  and  _427
REMARK  169  A    between atoms: _427  and  _428
REMARK  170  A    between atoms: _427  and  _430
REMARK  171  A    between atoms: _430  and  _431
REMARK  172  A    between atoms: _441  and  _443
REMARK  173  A    between atoms: _443  and  _444
REMARK  174  A    between atoms: _443  and  _446
REMARK  175  A    between atoms: _446  and  _447
REMARK  176  A    between atoms: _452  and  _454
REMARK  177  A    between atoms: _454  and  _455
REMARK  178  A    between atoms: _454  and  _457
REMARK  179  A    between atoms: _457  and  _458
REMARK  180  A    between atoms: _458  and  _459
REMARK  181  A    between atoms: _459  and  _460
REMARK  182  A    between atoms: _460  and  _461
REMARK  183  A    between atoms: _465  and  _467
REMARK  184  A    between atoms: _467  and  _468
REMARK  185  A    between atoms: _467  and  _470
REMARK  186  A    between atoms: _470  and  _471
REMARK  187  A    between atoms: _477  and  _479
REMARK  188  A    between atoms: _479  and  _480
REMARK  189  A    between atoms: _482  and  _484
REMARK  190  A    between atoms: _484  and  _485
REMARK  191  A    between atoms: _484  and  _487
REMARK  192  A    between atoms: _487  and  _488
REMARK  193  A    between atoms: _490  and  _492
REMARK  194  A    between atoms: _492  and  _493
REMARK  195  A    between atoms: _492  and  _495
REMARK  196  A    between atoms: _495  and  _496
REMARK  197  A    between atoms: _496  and  _497
REMARK  198  A    between atoms: _497  and  _498
REMARK  199  A    between atoms: _498  and  _499
REMARK  200  A    between atoms: _503  and  _505
REMARK  201  A    between atoms: _505  and  _506
REMARK  202  A    between atoms: _505  and  _508
REMARK  203  A    between atoms: _508  and  _509
REMARK  204  A    between atoms: _514  and  _516
REMARK  205  A    between atoms: _516  and  _517
REMARK  206  A    between atoms: _516  and  _519
REMARK  207  A    between atoms: _519  and  _520
REMARK  208  A    between atoms: _520  and  _521
REMARK  209  A    between atoms: _521  and  _522
REMARK  210  A    between atoms: _531  and  _533
REMARK  211  A    between atoms: _533  and  _534
REMARK  212  A    between atoms: _533  and  _536
REMARK  213  A    between atoms: _536  and  _537
REMARK  214  A    between atoms: _537  and  _538
REMARK  215  A    between atoms: _543  and  _545
REMARK  216  A    between atoms: _545  and  _546
REMARK  217  A    between atoms: _545  and  _548
REMARK  218  A    between atoms: _548  and  _549
REMARK  219  A    between atoms: _549  and  _550
REMARK  220  A    between atoms: _555  and  _557
REMARK  221  A    between atoms: _557  and  _558
REMARK  222  A    between atoms: _557  and  _560
REMARK  223  A    between atoms: _560  and  _561
REMARK  224  A    between atoms: _564  and  _566
REMARK  225  A    between atoms: _566  and  _567
REMARK  226  A    between atoms: _566  and  _569
REMARK  227  A    between atoms: _569  and  _570
REMARK  228  A    between atoms: _570  and  _571
REMARK  229  A    between atoms: _573  and  _575
REMARK  230  A    between atoms: _575  and  _576
REMARK  231  A    between atoms: _575  and  _578
REMARK  232  A    between atoms: _578  and  _579
REMARK  233  A    between atoms: _581  and  _583
REMARK  234  A    between atoms: _583  and  _584
REMARK  235  A    between atoms: _586  and  _588
REMARK  236  A    between atoms: _588  and  _589
REMARK  237  A    between atoms: _588  and  _591
REMARK  238  A    between atoms: _591  and  _592
REMARK  239  A    between atoms: _597  and  _598
REMARK  240  A    between atoms: _600  and  _602
REMARK  241  A    between atoms: _602  and  _603
REMARK  242  A    between atoms: _602  and  _605
REMARK  243  A    between atoms: _605  and  _606
REMARK  244  A    between atoms: _616  and  _618
REMARK  245  A    between atoms: _618  and  _619
REMARK  246  A    between atoms: _618  and  _621
REMARK  247  A    between atoms: _621  and  _622
REMARK  248  A    between atoms: _625  and  _627
REMARK  249  A    between atoms: _627  and  _628
REMARK  250  A    between atoms: _631  and  _633
REMARK  251  A    between atoms: _633  and  _634
REMARK  252  A    between atoms: _637  and  _639
REMARK  253  A    between atoms: _639  and  _640
REMARK  254  A    between atoms: _639  and  _642
REMARK  255  A    between atoms: _642  and  _643
REMARK  256  A    between atoms: _647  and  _648
REMARK                            x       y       z     vdW  Elec       q    Type
REMARK                         _______ _______ _______ _____ _____    ______ ____
ROOT
ATOM      1  O   HOH     1      22.021  70.363  26.523  0.00  0.00    +0.000 OA
ENDROOT
TORSDOF 0
REMARK  Name = ../refined-set-2016/4uac/4uac_pocket.pdb
REMARK  256 active torsions:
REMARK  status: ('A' for Active; 'I' for Inactive)
REMARK    1  A    between atoms: _1  and  _3
REMARK    2  A    between atoms: _3  and  _4
REMARK    3  A    between atoms: _7  and  _8
REMARK    4  A    between atoms: _13  and  _15
REMARK    5  A    between atoms: _15  and  _16
REMARK    6  A    between atoms: _19  and  _21
REMARK    7  A    between atoms: _21  and  _22
REMARK    8  A    between atoms: _21  and  _24
REMARK    9  A    between atoms: _24  and  _25
REMARK   10  A    between atoms: _25  and  _26
REMARK   11  A    between atoms: _29  and  _31
REMARK   12  A    between atoms: _31  and  _32
REMARK   13  A    between atoms: _31  and  _34
REMARK   14  A    between atoms: _34  and  _35
REMARK   15  A    between atoms: _38  and  _40
REMARK   16  A    between atoms: _40  and  _41
REMARK   17  A    between atoms: _40  and  _43
REMARK   18  A    between atoms: _43  and  _44
REMARK   19  A    between atoms: _46  and  _48
REMARK   20  A    between atoms: _48  and  _49
REMARK   21  A    between atoms: _48  and  _51
REMARK   22  A    between atoms: _51  and  _52
REMARK   23  A    between atoms: _54  and  _56
REMARK   24  A    between atoms: _56  and  _57
REMARK   25  A    between atoms: _56  and  _59
REMARK   26  A    between atoms: _59  and  _60
REMARK   27  A    between atoms: _60  and  _61
REMARK   28  A    between atoms: _64  and  _66
REMARK   29  A    between atoms: _66  and  _67
REMARK   30  A    between atoms: _66  and  _69
REMARK   31  A    between atoms: _69  and  _70
REMARK   32  A    between atoms: _72  and  _74
REMARK   33  A    between atoms: _74  and  _75
REMARK   34  A    between atoms: _74  and  _77
REMARK   35  A    between atoms: _77  and  _78
REMARK   36  A    between atoms: _81  and  _83
REMARK   37  A    between atoms: _83  and  _84
REMARK   38  A    between atoms: _87  and  _89
REMARK   39  A    between atoms: _89  and  _90
REMARK   40  A    between atoms: _89  and  _92
REMARK   41  A    between atoms: _92  and  _93
REMARK   42  A    between atoms: _93  and  _94
REMARK   43  A    between atoms: _94  and  _95
REMARK   44  A    between atoms: _95  and  _96
REMARK   45  A    between atoms: _100  and  _102
REMARK   46  A    between atoms: _102  and  _103
REMARK   47  A    between atoms: _102  and  _105
REMARK   48  A    between atoms: _105  and  _106
REMARK   49  A    between atoms: _109  and  _111
REMARK   50  A    between atoms: _111  and  _112
REMARK   51  A    between atoms: _111  and  _114
REMARK   52  A    between atoms: _117  and  _119
REMARK   53  A    between atoms: _119  and  _120
REMARK   54  A    between atoms: _119  and  _122
REMARK   55  A    between atoms: _122  and  _123
REMARK   56  A    between atoms: _126  and  _128
REMARK   57  A    between atoms: _128  and  _129
REMARK   58  A    between atoms: _128  and  _131
REMARK   59  A    between atoms: _131  and  _132
REMARK   60  A    between atoms: _132  and  _133
REMARK   61  A    between atoms: _135  and  _137
REMARK   62  A    between atoms: _137  and  _138
REMARK   63  A    between atoms: _137  and  _140
REMARK   64  A    between atoms: _140  and  _141
REMARK   65  A    between atoms: _147  and  _149
REMARK   66  A    between atoms: _149  and  _150
REMARK   67  A    between atoms: _153  and  _155
REMARK   68  A    between atoms: _155  and  _156
REMARK   69  A    between atoms: _155  and  _158
REMARK   70  A    between atoms: _158  and  _159
REMARK   71  A    between atoms: _164  and  _166
REMARK   72  A    between atoms: _166  and  _167
REMARK   73  A    between atoms: _166  and  _169
REMARK   74  A    between atoms: _169  and  _170
REMARK   75  A    between atoms: _173  and  _175
REMARK   76  A    between atoms: _175  and  _176
REMARK   77  A    between atoms: _175  and  _178
REMARK   78  A    between atoms: _178  and  _179
REMARK   79  A    between atoms: _179  and  _180
REMARK   80  A    between atoms: _185  and  _187
REMARK   81  A    between atoms: _187  and  _188
REMARK   82  A    between atoms: _187  and  _190
REMARK   83  A    between atoms: _190  and  _191
REMARK   84  A    between atoms: _195  and  _196
REMARK   85  A    between atoms: _201  and  _203
REMARK   86  A    between atoms: _203  and  _204
REMARK   87  A    between atoms: _203  and  _206
REMARK   88  A    between atoms: _206  and  _207
REMARK   89  A    between atoms: _212  and  _213
REMARK   90  A    between atoms: _215  and  _217
REMARK   91  A    between atoms: _217  and  _218
REMARK   92  A    between atoms: _217  and  _220
REMARK   93  A    between atoms: _220  and  _221
REMARK   94  A    between atoms: _224  and  _226
REMARK   95  A    between atoms: _226  and  _227
REMARK   96  A    between atoms: _226  and  _229
REMARK   97  A    between atoms: _229  and  _230
REMARK   98  A    between atoms: _232  and  _234
REMARK   99  A    between atoms: _234  and  _235
REMARK  100  A    between atoms: _234  and  _237
REMARK  101  A    between atoms: _237  and  _238
REMARK  102  A    between atoms: _243  and  _245
REMARK  103  A    between atoms: _245  and  _246
REMARK  104  A    between atoms: _245  and  _248
REMARK  105  A    between atoms: _248  and  _249
REMARK  106  A    between atoms: _252  and  _254
REMARK  107  A    between atoms: _254  and  _255
REMARK  108  A    between atoms: _254  and  _257
REMARK  109  A    between atoms: _257  and  _258
REMARK  110  A    between atoms: _269  and  _270
REMARK  111  A    between atoms: _275  and  _277
REMARK  112  A    between atoms: _277  and  _278
REMARK  113  A    between atoms: _277  and  _280
REMARK  114  A    between atoms: _280  and  _281
REMARK  115  A    between atoms: _284  and  _286
REMARK  116  A    between atoms: _286  and  _287
REMARK  117  A    between atoms: _286  and  _289
REMARK  118  A    between atoms: _289  and  _290
REMARK  119  A    between atoms: _295  and  _297
REMARK  120  A    between atoms: _297  and  _298
REMARK  121  A    between atoms: _300  and  _302
REMARK  122  A    between atoms: _302  and  _303
REMARK  123  A    between atoms: _302  and  _305
REMARK  124  A    between atoms: _305  and  _306
REMARK  125  A    between atoms: _316  and  _318
REMARK  126  A    between atoms: _318  and  _319
REMARK  127  A    between atoms: _318  and  _321
REMARK  128  A    between atoms: _321  and  _322
REMARK  129  A    between atoms: _327  and  _328
REMARK  130  A    between atoms: _330  and  _332
REMARK  131  A    between atoms: _332  and  _333
REMARK  132  A    between atoms: _332  and  _335
REMARK  133  A    between atoms: _335  and  _336
REMARK  134  A    between atoms: _339  and  _341
REMARK  135  A    between atoms: _341  and  _342
REMARK  136  A    between atoms: _341  and  _344
REMARK  137  A    between atoms: _344  and  _345
REMARK  138  A    between atoms: _350  and  _352
REMARK  139  A    between atoms: _352  and  _353
REMARK  140  A    between atoms: _352  and  _355
REMARK  141  A    between atoms: _355  and  _356
REMARK  142  A    between atoms: _361  and  _363
REMARK  143  A    between atoms: _363  and  _364
REMARK  144  A    between atoms: _363  and  _366
REMARK  145  A    between atoms: _366  and  _367
REMARK  146  A    between atoms: _367  and  _368
REMARK  147  A    between atoms: _371  and  _373
REMARK  148  A    between atoms: _373  and  _374
REMARK  149  A    between atoms: _376  and  _378
REMARK  150  A    between atoms: _378  and  _379
REMARK  151  A    between atoms: _378  and  _381
REMARK  152  A    between atoms: _381  and  _382
REMARK  153  A    between atoms: _384  and  _386
REMARK  154  A    between atoms: _386  and  _387
REMARK  155  A    between atoms: _386  and  _389
REMARK  156  A    between atoms: _389  and  _390
REMARK  157  A    between atoms: _395  and  _396
REMARK  158  A    between atoms: _398  and  _400
REMARK  159  A    between atoms: _400  and  _401
REMARK  160  A    between atoms: _400  and  _403
REMARK  161  A    between atoms: _403  and  _404
REMARK  162  A    between atoms: _409  and  _411
REMARK  163  A    between atoms: _411  and  _412
REMARK  164  A    between atoms: _414  and  _416
REMARK  165  A    between atoms: _416  and  _417
REMARK  166  A    between atoms: _416  and  _419
REMARK  167  A    between atoms: _419  and  _420
REMARK  168  A    between atoms: _425  and  _427
REMARK  169  A    between atoms: _427  and  _428
REMARK  170  A    between atoms: _427  and  _430
REMARK  171  A    between atoms: _430  and  _431
REMARK  172  A    between atoms: _441  and  _443
REMARK  173  A    between atoms: _443  and  _444
REMARK  174  A    between atoms: _443  and  _446
REMARK  175  A    between atoms: _446  and  _447
REMARK  176  A    between atoms: _452  and  _454
REMARK  177  A    between atoms: _454  and  _455
REMARK  178  A    between atoms: _454  and  _457
REMARK  179  A    between atoms: _457  and  _458
REMARK  180  A    between atoms: _458  and  _459
REMARK  181  A    between atoms: _459  and  _460
REMARK  182  A    between atoms: _460  and  _461
REMARK  183  A    between atoms: _465  and  _467
REMARK  184  A    between atoms: _467  and  _468
REMARK  185  A    between atoms: _467  and  _470
REMARK  186  A    between atoms: _470  and  _471
REMARK  187  A    between atoms: _477  and  _479
REMARK  188  A    between atoms: _479  and  _480
REMARK  189  A    between atoms: _482  and  _484
REMARK  190  A    between atoms: _484  and  _485
REMARK  191  A    between atoms: _484  and  _487
REMARK  192  A    between atoms: _487  and  _488
REMARK  193  A    between atoms: _490  and  _492
REMARK  194  A    between atoms: _492  and  _493
REMARK  195  A    between atoms: _492  and  _495
REMARK  196  A    between atoms: _495  and  _496
REMARK  197  A    between atoms: _496  and  _497
REMARK  198  A    between atoms: _497  and  _498
REMARK  199  A    between atoms: _498  and  _499
REMARK  200  A    between atoms: _503  and  _505
REMARK  201  A    between atoms: _505  and  _506
REMARK  202  A    between atoms: _505  and  _508
REMARK  203  A    between atoms: _508  and  _509
REMARK  204  A    between atoms: _514  and  _516
REMARK  205  A    between atoms: _516  and  _517
REMARK  206  A    between atoms: _516  and  _519
REMARK  207  A    between atoms: _519  and  _520
REMARK  208  A    between atoms: _520  and  _521
REMARK  209  A    between atoms: _521  and  _522
REMARK  210  A    between atoms: _531  and  _533
REMARK  211  A    between atoms: _533  and  _534
REMARK  212  A    between atoms: _533  and  _536
REMARK  213  A    between atoms: _536  and  _537
REMARK  214  A    between atoms: _537  and  _538
REMARK  215  A    between atoms: _543  and  _545
REMARK  216  A    between atoms: _545  and  _546
REMARK  217  A    between atoms: _545  and  _548
REMARK  218  A    between atoms: _548  and  _549
REMARK  219  A    between atoms: _549  and  _550
REMARK  220  A    between atoms: _555  and  _557
REMARK  221  A    between atoms: _557  and  _558
REMARK  222  A    between atoms: _557  and  _560
REMARK  223  A    between atoms: _560  and  _561
REMARK  224  A    between atoms: _564  and  _566
REMARK  225  A    between atoms: _566  and  _567
REMARK  226  A    between atoms: _566  and  _569
REMARK  227  A    between atoms: _569  and  _570
REMARK  228  A    between atoms: _570  and  _571
REMARK  229  A    between atoms: _573  and  _575
REMARK  230  A    between atoms: _575  and  _576
REMARK  231  A    between atoms: _575  and  _578
REMARK  232  A    between atoms: _578  and  _579
REMARK  233  A    between atoms: _581  and  _583
REMARK  234  A    between atoms: _583  and  _584
REMARK  235  A    between atoms: _586  and  _588
REMARK  236  A    between atoms: _588  and  _589
REMARK  237  A    between atoms: _588  and  _591
REMARK  238  A    between atoms: _591  and  _592
REMARK  239  A    between atoms: _597  and  _598
REMARK  240  A    between atoms: _600  and  _602
REMARK  241  A    between atoms: _602  and  _603
REMARK  242  A    between atoms: _602  and  _605
REMARK  243  A    between atoms: _605  and  _606
REMARK  244  A    between atoms: _616  and  _618
REMARK  245  A    between atoms: _618  and  _619
REMARK  246  A    between atoms: _618  and  _621
REMARK  247  A    between atoms: _621  and  _622
REMARK  248  A    between atoms: _625  and  _627
REMARK  249  A    between atoms: _627  and  _628
REMARK  250  A    between atoms: _631  and  _633
REMARK  251  A    between atoms: _633  and  _634
REMARK  252  A    between atoms: _637  and  _639
REMARK  253  A    between atoms: _639  and  _640
REMARK  254  A    between atoms: _639  and  _642
REMARK  255  A    between atoms: _642  and  _643
REMARK  256  A    between atoms: _647  and  _648
REMARK                            x       y       z     vdW  Elec       q    Type
REMARK                         _______ _______ _______ _____ _____    ______ ____
ROOT
ATOM      1  O   HOH     1      35.475  61.272  28.565  0.00  0.00    +0.000 OA
ENDROOT
TORSDOF 0
REMARK  Name = ../refined-set-2016/4uac/4uac_pocket.pdb
REMARK  256 active torsions:
REMARK  status: ('A' for Active; 'I' for Inactive)
REMARK    1  A    between atoms: _1  and  _3
REMARK    2  A    between atoms: _3  and  _4
REMARK    3  A    between atoms: _7  and  _8
REMARK    4  A    between atoms: _13  and  _15
REMARK    5  A    between atoms: _15  and  _16
REMARK    6  A    between atoms: _19  and  _21
REMARK    7  A    between atoms: _21  and  _22
REMARK    8  A    between atoms: _21  and  _24
REMARK    9  A    between atoms: _24  and  _25
REMARK   10  A    between atoms: _25  and  _26
REMARK   11  A    between atoms: _29  and  _31
REMARK   12  A    between atoms: _31  and  _32
REMARK   13  A    between atoms: _31  and  _34
REMARK   14  A    between atoms: _34  and  _35
REMARK   15  A    between atoms: _38  and  _40
REMARK   16  A    between atoms: _40  and  _41
REMARK   17  A    between atoms: _40  and  _43
REMARK   18  A    between atoms: _43  and  _44
REMARK   19  A    between atoms: _46  and  _48
REMARK   20  A    between atoms: _48  and  _49
REMARK   21  A    between atoms: _48  and  _51
REMARK   22  A    between atoms: _51  and  _52
REMARK   23  A    between atoms: _54  and  _56
REMARK   24  A    between atoms: _56  and  _57
REMARK   25  A    between atoms: _56  and  _59
REMARK   26  A    between atoms: _59  and  _60
REMARK   27  A    between atoms: _60  and  _61
REMARK   28  A    between atoms: _64  and  _66
REMARK   29  A    between atoms: _66  and  _67
REMARK   30  A    between atoms: _66  and  _69
REMARK   31  A    between atoms: _69  and  _70
REMARK   32  A    between atoms: _72  and  _74
REMARK   33  A    between atoms: _74  and  _75
REMARK   34  A    between atoms: _74  and  _77
REMARK   35  A    between atoms: _77  and  _78
REMARK   36  A    between atoms: _81  and  _83
REMARK   37  A    between atoms: _83  and  _84
REMARK   38  A    between atoms: _87  and  _89
REMARK   39  A    between atoms: _89  and  _90
REMARK   40  A    between atoms: _89  and  _92
REMARK   41  A    between atoms: _92  and  _93
REMARK   42  A    between atoms: _93  and  _94
REMARK   43  A    between atoms: _94  and  _95
REMARK   44  A    between atoms: _95  and  _96
REMARK   45  A    between atoms: _100  and  _102
REMARK   46  A    between atoms: _102  and  _103
REMARK   47  A    between atoms: _102  and  _105
REMARK   48  A    between atoms: _105  and  _106
REMARK   49  A    between atoms: _109  and  _111
REMARK   50  A    between atoms: _111  and  _112
REMARK   51  A    between atoms: _111  and  _114
REMARK   52  A    between atoms: _117  and  _119
REMARK   53  A    between atoms: _119  and  _120
REMARK   54  A    between atoms: _119  and  _122
REMARK   55  A    between atoms: _122  and  _123
REMARK   56  A    between atoms: _126  and  _128
REMARK   57  A    between atoms: _128  and  _129
REMARK   58  A    between atoms: _128  and  _131
REMARK   59  A    between atoms: _131  and  _132
REMARK   60  A    between atoms: _132  and  _133
REMARK   61  A    between atoms: _135  and  _137
REMARK   62  A    between atoms: _137  and  _138
REMARK   63  A    between atoms: _137  and  _140
REMARK   64  A    between atoms: _140  and  _141
REMARK   65  A    between atoms: _147  and  _149
REMARK   66  A    between atoms: _149  and  _150
REMARK   67  A    between atoms: _153  and  _155
REMARK   68  A    between atoms: _155  and  _156
REMARK   69  A    between atoms: _155  and  _158
REMARK   70  A    between atoms: _158  and  _159
REMARK   71  A    between atoms: _164  and  _166
REMARK   72  A    between atoms: _166  and  _167
REMARK   73  A    between atoms: _166  and  _169
REMARK   74  A    between atoms: _169  and  _170
REMARK   75  A    between atoms: _173  and  _175
REMARK   76  A    between atoms: _175  and  _176
REMARK   77  A    between atoms: _175  and  _178
REMARK   78  A    between atoms: _178  and  _179
REMARK   79  A    between atoms: _179  and  _180
REMARK   80  A    between atoms: _185  and  _187
REMARK   81  A    between atoms: _187  and  _188
REMARK   82  A    between atoms: _187  and  _190
REMARK   83  A    between atoms: _190  and  _191
REMARK   84  A    between atoms: _195  and  _196
REMARK   85  A    between atoms: _201  and  _203
REMARK   86  A    between atoms: _203  and  _204
REMARK   87  A    between atoms: _203  and  _206
REMARK   88  A    between atoms: _206  and  _207
REMARK   89  A    between atoms: _212  and  _213
REMARK   90  A    between atoms: _215  and  _217
REMARK   91  A    between atoms: _217  and  _218
REMARK   92  A    between atoms: _217  and  _220
REMARK   93  A    between atoms: _220  and  _221
REMARK   94  A    between atoms: _224  and  _226
REMARK   95  A    between atoms: _226  and  _227
REMARK   96  A    between atoms: _226  and  _229
REMARK   97  A    between atoms: _229  and  _230
REMARK   98  A    between atoms: _232  and  _234
REMARK   99  A    between atoms: _234  and  _235
REMARK  100  A    between atoms: _234  and  _237
REMARK  101  A    between atoms: _237  and  _238
REMARK  102  A    between atoms: _243  and  _245
REMARK  103  A    between atoms: _245  and  _246
REMARK  104  A    between atoms: _245  and  _248
REMARK  105  A    between atoms: _248  and  _249
REMARK  106  A    between atoms: _252  and  _254
REMARK  107  A    between atoms: _254  and  _255
REMARK  108  A    between atoms: _254  and  _257
REMARK  109  A    between atoms: _257  and  _258
REMARK  110  A    between atoms: _269  and  _270
REMARK  111  A    between atoms: _275  and  _277
REMARK  112  A    between atoms: _277  and  _278
REMARK  113  A    between atoms: _277  and  _280
REMARK  114  A    between atoms: _280  and  _281
REMARK  115  A    between atoms: _284  and  _286
REMARK  116  A    between atoms: _286  and  _287
REMARK  117  A    between atoms: _286  and  _289
REMARK  118  A    between atoms: _289  and  _290
REMARK  119  A    between atoms: _295  and  _297
REMARK  120  A    between atoms: _297  and  _298
REMARK  121  A    between atoms: _300  and  _302
REMARK  122  A    between atoms: _302  and  _303
REMARK  123  A    between atoms: _302  and  _305
REMARK  124  A    between atoms: _305  and  _306
REMARK  125  A    between atoms: _316  and  _318
REMARK  126  A    between atoms: _318  and  _319
REMARK  127  A    between atoms: _318  and  _321
REMARK  128  A    between atoms: _321  and  _322
REMARK  129  A    between atoms: _327  and  _328
REMARK  130  A    between atoms: _330  and  _332
REMARK  131  A    between atoms: _332  and  _333
REMARK  132  A    between atoms: _332  and  _335
REMARK  133  A    between atoms: _335  and  _336
REMARK  134  A    between atoms: _339  and  _341
REMARK  135  A    between atoms: _341  and  _342
REMARK  136  A    between atoms: _341  and  _344
REMARK  137  A    between atoms: _344  and  _345
REMARK  138  A    between atoms: _350  and  _352
REMARK  139  A    between atoms: _352  and  _353
REMARK  140  A    between atoms: _352  and  _355
REMARK  141  A    between atoms: _355  and  _356
REMARK  142  A    between atoms: _361  and  _363
REMARK  143  A    between atoms: _363  and  _364
REMARK  144  A    between atoms: _363  and  _366
REMARK  145  A    between atoms: _366  and  _367
REMARK  146  A    between atoms: _367  and  _368
REMARK  147  A    between atoms: _371  and  _373
REMARK  148  A    between atoms: _373  and  _374
REMARK  149  A    between atoms: _376  and  _378
REMARK  150  A    between atoms: _378  and  _379
REMARK  151  A    between atoms: _378  and  _381
REMARK  152  A    between atoms: _381  and  _382
REMARK  153  A    between atoms: _384  and  _386
REMARK  154  A    between atoms: _386  and  _387
REMARK  155  A    between atoms: _386  and  _389
REMARK  156  A    between atoms: _389  and  _390
REMARK  157  A    between atoms: _395  and  _396
REMARK  158  A    between atoms: _398  and  _400
REMARK  159  A    between atoms: _400  and  _401
REMARK  160  A    between atoms: _400  and  _403
REMARK  161  A    between atoms: _403  and  _404
REMARK  162  A    between atoms: _409  and  _411
REMARK  163  A    between atoms: _411  and  _412
REMARK  164  A    between atoms: _414  and  _416
REMARK  165  A    between atoms: _416  and  _417
REMARK  166  A    between atoms: _416  and  _419
REMARK  167  A    between atoms: _419  and  _420
REMARK  168  A    between atoms: _425  and  _427
REMARK  169  A    between atoms: _427  and  _428
REMARK  170  A    between atoms: _427  and  _430
REMARK  171  A    between atoms: _430  and  _431
REMARK  172  A    between atoms: _441  and  _443
REMARK  173  A    between atoms: _443  and  _444
REMARK  174  A    between atoms: _443  and  _446
REMARK  175  A    between atoms: _446  and  _447
REMARK  176  A    between atoms: _452  and  _454
REMARK  177  A    between atoms: _454  and  _455
REMARK  178  A    between atoms: _454  and  _457
REMARK  179  A    between atoms: _457  and  _458
REMARK  180  A    between atoms: _458  and  _459
REMARK  181  A    between atoms: _459  and  _460
REMARK  182  A    between atoms: _460  and  _461
REMARK  183  A    between atoms: _465  and  _467
REMARK  184  A    between atoms: _467  and  _468
REMARK  185  A    between atoms: _467  and  _470
REMARK  186  A    between atoms: _470  and  _471
REMARK  187  A    between atoms: _477  and  _479
REMARK  188  A    between atoms: _479  and  _480
REMARK  189  A    between atoms: _482  and  _484
REMARK  190  A    between atoms: _484  and  _485
REMARK  191  A    between atoms: _484  and  _487
REMARK  192  A    between atoms: _487  and  _488
REMARK  193  A    between atoms: _490  and  _492
REMARK  194  A    between atoms: _492  and  _493
REMARK  195  A    between atoms: _492  and  _495
REMARK  196  A    between atoms: _495  and  _496
REMARK  197  A    between atoms: _496  and  _497
REMARK  198  A    between atoms: _497  and  _498
REMARK  199  A    between atoms: _498  and  _499
REMARK  200  A    between atoms: _503  and  _505
REMARK  201  A    between atoms: _505  and  _506
REMARK  202  A    between atoms: _505  and  _508
REMARK  203  A    between atoms: _508  and  _509
REMARK  204  A    between atoms: _514  and  _516
REMARK  205  A    between atoms: _516  and  _517
REMARK  206  A    between atoms: _516  and  _519
REMARK  207  A    between atoms: _519  and  _520
REMARK  208  A    between atoms: _520  and  _521
REMARK  209  A    between atoms: _521  and  _522
REMARK  210  A    between atoms: _531  and  _533
REMARK  211  A    between atoms: _533  and  _534
REMARK  212  A    between atoms: _533  and  _536
REMARK  213  A    between atoms: _536  and  _537
REMARK  214  A    between atoms: _537  and  _538
REMARK  215  A    between atoms: _543  and  _545
REMARK  216  A    between atoms: _545  and  _546
REMARK  217  A    between atoms: _545  and  _548
REMARK  218  A    between atoms: _548  and  _549
REMARK  219  A    between atoms: _549  and  _550
REMARK  220  A    between atoms: _555  and  _557
REMARK  221  A    between atoms: _557  and  _558
REMARK  222  A    between atoms: _557  and  _560
REMARK  223  A    between atoms: _560  and  _561
REMARK  224  A    between atoms: _564  and  _566
REMARK  225  A    between atoms: _566  and  _567
REMARK  226  A    between atoms: _566  and  _569
REMARK  227  A    between atoms: _569  and  _570
REMARK  228  A    between atoms: _570  and  _571
REMARK  229  A    between atoms: _573  and  _575
REMARK  230  A    between atoms: _575  and  _576
REMARK  231  A    between atoms: _575  and  _578
REMARK  232  A    between atoms: _578  and  _579
REMARK  233  A    between atoms: _581  and  _583
REMARK  234  A    between atoms: _583  and  _584
REMARK  235  A    between atoms: _586  and  _588
REMARK  236  A    between atoms: _588  and  _589
REMARK  237  A    between atoms: _588  and  _591
REMARK  238  A    between atoms: _591  and  _592
REMARK  239  A    between atoms: _597  and  _598
REMARK  240  A    between atoms: _600  and  _602
REMARK  241  A    between atoms: _602  and  _603
REMARK  242  A    between atoms: _602  and  _605
REMARK  243  A    between atoms: _605  and  _606
REMARK  244  A    between atoms: _616  and  _618
REMARK  245  A    between atoms: _618  and  _619
REMARK  246  A    between atoms: _618  and  _621
REMARK  247  A    between atoms: _621  and  _622
REMARK  248  A    between atoms: _625  and  _627
REMARK  249  A    between atoms: _627  and  _628
REMARK  250  A    between atoms: _631  and  _633
REMARK  251  A    between atoms: _633  and  _634
REMARK  252  A    between atoms: _637  and  _639
REMARK  253  A    between atoms: _639  and  _640
REMARK  254  A    between atoms: _639  and  _642
REMARK  255  A    between atoms: _642  and  _643
REMARK  256  A    between atoms: _647  and  _648
REMARK                            x       y       z     vdW  Elec       q    Type
REMARK                         _______ _______ _______ _____ _____    ______ ____
ROOT
ATOM      1  O   HOH     1      31.084  54.692  28.368  0.00  0.00    +0.000 OA
ENDROOT
TORSDOF 0
REMARK  Name = ../refined-set-2016/4uac/4uac_pocket.pdb
REMARK  256 active torsions:
REMARK  status: ('A' for Active; 'I' for Inactive)
REMARK    1  A    between atoms: _1  and  _3
REMARK    2  A    between atoms: _3  and  _4
REMARK    3  A    between atoms: _7  and  _8
REMARK    4  A    between atoms: _13  and  _15
REMARK    5  A    between atoms: _15  and  _16
REMARK    6  A    between atoms: _19  and  _21
REMARK    7  A    between atoms: _21  and  _22
REMARK    8  A    between atoms: _21  and  _24
REMARK    9  A    between atoms: _24  and  _25
REMARK   10  A    between atoms: _25  and  _26
REMARK   11  A    between atoms: _29  and  _31
REMARK   12  A    between atoms: _31  and  _32
REMARK   13  A    between atoms: _31  and  _34
REMARK   14  A    between atoms: _34  and  _35
REMARK   15  A    between atoms: _38  and  _40
REMARK   16  A    between atoms: _40  and  _41
REMARK   17  A    between atoms: _40  and  _43
REMARK   18  A    between atoms: _43  and  _44
REMARK   19  A    between atoms: _46  and  _48
REMARK   20  A    between atoms: _48  and  _49
REMARK   21  A    between atoms: _48  and  _51
REMARK   22  A    between atoms: _51  and  _52
REMARK   23  A    between atoms: _54  and  _56
REMARK   24  A    between atoms: _56  and  _57
REMARK   25  A    between atoms: _56  and  _59
REMARK   26  A    between atoms: _59  and  _60
REMARK   27  A    between atoms: _60  and  _61
REMARK   28  A    between atoms: _64  and  _66
REMARK   29  A    between atoms: _66  and  _67
REMARK   30  A    between atoms: _66  and  _69
REMARK   31  A    between atoms: _69  and  _70
REMARK   32  A    between atoms: _72  and  _74
REMARK   33  A    between atoms: _74  and  _75
REMARK   34  A    between atoms: _74  and  _77
REMARK   35  A    between atoms: _77  and  _78
REMARK   36  A    between atoms: _81  and  _83
REMARK   37  A    between atoms: _83  and  _84
REMARK   38  A    between atoms: _87  and  _89
REMARK   39  A    between atoms: _89  and  _90
REMARK   40  A    between atoms: _89  and  _92
REMARK   41  A    between atoms: _92  and  _93
REMARK   42  A    between atoms: _93  and  _94
REMARK   43  A    between atoms: _94  and  _95
REMARK   44  A    between atoms: _95  and  _96
REMARK   45  A    between atoms: _100  and  _102
REMARK   46  A    between atoms: _102  and  _103
REMARK   47  A    between atoms: _102  and  _105
REMARK   48  A    between atoms: _105  and  _106
REMARK   49  A    between atoms: _109  and  _111
REMARK   50  A    between atoms: _111  and  _112
REMARK   51  A    between atoms: _111  and  _114
REMARK   52  A    between atoms: _117  and  _119
REMARK   53  A    between atoms: _119  and  _120
REMARK   54  A    between atoms: _119  and  _122
REMARK   55  A    between atoms: _122  and  _123
REMARK   56  A    between atoms: _126  and  _128
REMARK   57  A    between atoms: _128  and  _129
REMARK   58  A    between atoms: _128  and  _131
REMARK   59  A    between atoms: _131  and  _132
REMARK   60  A    between atoms: _132  and  _133
REMARK   61  A    between atoms: _135  and  _137
REMARK   62  A    between atoms: _137  and  _138
REMARK   63  A    between atoms: _137  and  _140
REMARK   64  A    between atoms: _140  and  _141
REMARK   65  A    between atoms: _147  and  _149
REMARK   66  A    between atoms: _149  and  _150
REMARK   67  A    between atoms: _153  and  _155
REMARK   68  A    between atoms: _155  and  _156
REMARK   69  A    between atoms: _155  and  _158
REMARK   70  A    between atoms: _158  and  _159
REMARK   71  A    between atoms: _164  and  _166
REMARK   72  A    between atoms: _166  and  _167
REMARK   73  A    between atoms: _166  and  _169
REMARK   74  A    between atoms: _169  and  _170
REMARK   75  A    between atoms: _173  and  _175
REMARK   76  A    between atoms: _175  and  _176
REMARK   77  A    between atoms: _175  and  _178
REMARK   78  A    between atoms: _178  and  _179
REMARK   79  A    between atoms: _179  and  _180
REMARK   80  A    between atoms: _185  and  _187
REMARK   81  A    between atoms: _187  and  _188
REMARK   82  A    between atoms: _187  and  _190
REMARK   83  A    between atoms: _190  and  _191
REMARK   84  A    between atoms: _195  and  _196
REMARK   85  A    between atoms: _201  and  _203
REMARK   86  A    between atoms: _203  and  _204
REMARK   87  A    between atoms: _203  and  _206
REMARK   88  A    between atoms: _206  and  _207
REMARK   89  A    between atoms: _212  and  _213
REMARK   90  A    between atoms: _215  and  _217
REMARK   91  A    between atoms: _217  and  _218
REMARK   92  A    between atoms: _217  and  _220
REMARK   93  A    between atoms: _220  and  _221
REMARK   94  A    between atoms: _224  and  _226
REMARK   95  A    between atoms: _226  and  _227
REMARK   96  A    between atoms: _226  and  _229
REMARK   97  A    between atoms: _229  and  _230
REMARK   98  A    between atoms: _232  and  _234
REMARK   99  A    between atoms: _234  and  _235
REMARK  100  A    between atoms: _234  and  _237
REMARK  101  A    between atoms: _237  and  _238
REMARK  102  A    between atoms: _243  and  _245
REMARK  103  A    between atoms: _245  and  _246
REMARK  104  A    between atoms: _245  and  _248
REMARK  105  A    between atoms: _248  and  _249
REMARK  106  A    between atoms: _252  and  _254
REMARK  107  A    between atoms: _254  and  _255
REMARK  108  A    between atoms: _254  and  _257
REMARK  109  A    between atoms: _257  and  _258
REMARK  110  A    between atoms: _269  and  _270
REMARK  111  A    between atoms: _275  and  _277
REMARK  112  A    between atoms: _277  and  _278
REMARK  113  A    between atoms: _277  and  _280
REMARK  114  A    between atoms: _280  and  _281
REMARK  115  A    between atoms: _284  and  _286
REMARK  116  A    between atoms: _286  and  _287
REMARK  117  A    between atoms: _286  and  _289
REMARK  118  A    between atoms: _289  and  _290
REMARK  119  A    between atoms: _295  and  _297
REMARK  120  A    between atoms: _297  and  _298
REMARK  121  A    between atoms: _300  and  _302
REMARK  122  A    between atoms: _302  and  _303
REMARK  123  A    between atoms: _302  and  _305
REMARK  124  A    between atoms: _305  and  _306
REMARK  125  A    between atoms: _316  and  _318
REMARK  126  A    between atoms: _318  and  _319
REMARK  127  A    between atoms: _318  and  _321
REMARK  128  A    between atoms: _321  and  _322
REMARK  129  A    between atoms: _327  and  _328
REMARK  130  A    between atoms: _330  and  _332
REMARK  131  A    between atoms: _332  and  _333
REMARK  132  A    between atoms: _332  and  _335
REMARK  133  A    between atoms: _335  and  _336
REMARK  134  A    between atoms: _339  and  _341
REMARK  135  A    between atoms: _341  and  _342
REMARK  136  A    between atoms: _341  and  _344
REMARK  137  A    between atoms: _344  and  _345
REMARK  138  A    between atoms: _350  and  _352
REMARK  139  A    between atoms: _352  and  _353
REMARK  140  A    between atoms: _352  and  _355
REMARK  141  A    between atoms: _355  and  _356
REMARK  142  A    between atoms: _361  and  _363
REMARK  143  A    between atoms: _363  and  _364
REMARK  144  A    between atoms: _363  and  _366
REMARK  145  A    between atoms: _366  and  _367
REMARK  146  A    between atoms: _367  and  _368
REMARK  147  A    between atoms: _371  and  _373
REMARK  148  A    between atoms: _373  and  _374
REMARK  149  A    between atoms: _376  and  _378
REMARK  150  A    between atoms: _378  and  _379
REMARK  151  A    between atoms: _378  and  _381
REMARK  152  A    between atoms: _381  and  _382
REMARK  153  A    between atoms: _384  and  _386
REMARK  154  A    between atoms: _386  and  _387
REMARK  155  A    between atoms: _386  and  _389
REMARK  156  A    between atoms: _389  and  _390
REMARK  157  A    between atoms: _395  and  _396
REMARK  158  A    between atoms: _398  and  _400
REMARK  159  A    between atoms: _400  and  _401
REMARK  160  A    between atoms: _400  and  _403
REMARK  161  A    between atoms: _403  and  _404
REMARK  162  A    between atoms: _409  and  _411
REMARK  163  A    between atoms: _411  and  _412
REMARK  164  A    between atoms: _414  and  _416
REMARK  165  A    between atoms: _416  and  _417
REMARK  166  A    between atoms: _416  and  _419
REMARK  167  A    between atoms: _419  and  _420
REMARK  168  A    between atoms: _425  and  _427
REMARK  169  A    between atoms: _427  and  _428
REMARK  170  A    between atoms: _427  and  _430
REMARK  171  A    between atoms: _430  and  _431
REMARK  172  A    between atoms: _441  and  _443
REMARK  173  A    between atoms: _443  and  _444
REMARK  174  A    between atoms: _443  and  _446
REMARK  175  A    between atoms: _446  and  _447
REMARK  176  A    between atoms: _452  and  _454
REMARK  177  A    between atoms: _454  and  _455
REMARK  178  A    between atoms: _454  and  _457
REMARK  179  A    between atoms: _457  and  _458
REMARK  180  A    between atoms: _458  and  _459
REMARK  181  A    between atoms: _459  and  _460
REMARK  182  A    between atoms: _460  and  _461
REMARK  183  A    between atoms: _465  and  _467
REMARK  184  A    between atoms: _467  and  _468
REMARK  185  A    between atoms: _467  and  _470
REMARK  186  A    between atoms: _470  and  _471
REMARK  187  A    between atoms: _477  and  _479
REMARK  188  A    between atoms: _479  and  _480
REMARK  189  A    between atoms: _482  and  _484
REMARK  190  A    between atoms: _484  and  _485
REMARK  191  A    between atoms: _484  and  _487
REMARK  192  A    between atoms: _487  and  _488
REMARK  193  A    between atoms: _490  and  _492
REMARK  194  A    between atoms: _492  and  _493
REMARK  195  A    between atoms: _492  and  _495
REMARK  196  A    between atoms: _495  and  _496
REMARK  197  A    between atoms: _496  and  _497
REMARK  198  A    between atoms: _497  and  _498
REMARK  199  A    between atoms: _498  and  _499
REMARK  200  A    between atoms: _503  and  _505
REMARK  201  A    between atoms: _505  and  _506
REMARK  202  A    between atoms: _505  and  _508
REMARK  203  A    between atoms: _508  and  _509
REMARK  204  A    between atoms: _514  and  _516
REMARK  205  A    between atoms: _516  and  _517
REMARK  206  A    between atoms: _516  and  _519
REMARK  207  A    between atoms: _519  and  _520
REMARK  208  A    between atoms: _520  and  _521
REMARK  209  A    between atoms: _521  and  _522
REMARK  210  A    between atoms: _531  and  _533
REMARK  211  A    between atoms: _533  and  _534
REMARK  212  A    between atoms: _533  and  _536
REMARK  213  A    between atoms: _536  and  _537
REMARK  214  A    between atoms: _537  and  _538
REMARK  215  A    between atoms: _543  and  _545
REMARK  216  A    between atoms: _545  and  _546
REMARK  217  A    between atoms: _545  and  _548
REMARK  218  A    between atoms: _548  and  _549
REMARK  219  A    between atoms: _549  and  _550
REMARK  220  A    between atoms: _555  and  _557
REMARK  221  A    between atoms: _557  and  _558
REMARK  222  A    between atoms: _557  and  _560
REMARK  223  A    between atoms: _560  and  _561
REMARK  224  A    between atoms: _564  and  _566
REMARK  225  A    between atoms: _566  and  _567
REMARK  226  A    between atoms: _566  and  _569
REMARK  227  A    between atoms: _569  and  _570
REMARK  228  A    between atoms: _570  and  _571
REMARK  229  A    between atoms: _573  and  _575
REMARK  230  A    between atoms: _575  and  _576
REMARK  231  A    between atoms: _575  and  _578
REMARK  232  A    between atoms: _578  and  _579
REMARK  233  A    between atoms: _581  and  _583
REMARK  234  A    between atoms: _583  and  _584
REMARK  235  A    between atoms: _586  and  _588
REMARK  236  A    between atoms: _588  and  _589
REMARK  237  A    between atoms: _588  and  _591
REMARK  238  A    between atoms: _591  and  _592
REMARK  239  A    between atoms: _597  and  _598
REMARK  240  A    between atoms: _600  and  _602
REMARK  241  A    between atoms: _602  and  _603
REMARK  242  A    between atoms: _602  and  _605
REMARK  243  A    between atoms: _605  and  _606
REMARK  244  A    between atoms: _616  and  _618
REMARK  245  A    between atoms: _618  and  _619
REMARK  246  A    between atoms: _618  and  _621
REMARK  247  A    between atoms: _621  and  _622
REMARK  248  A    between atoms: _625  and  _627
REMARK  249  A    between atoms: _627  and  _628
REMARK  250  A    between atoms: _631  and  _633
REMARK  251  A    between atoms: _633  and  _634
REMARK  252  A    between atoms: _637  and  _639
REMARK  253  A    between atoms: _639  and  _640
REMARK  254  A    between atoms: _639  and  _642
REMARK  255  A    between atoms: _642  and  _643
REMARK  256  A    between atoms: _647  and  _648
REMARK                            x       y       z     vdW  Elec       q    Type
REMARK                         _______ _______ _______ _____ _____    ______ ____
ROOT
ATOM      1  O   HOH     1      39.319  59.539  24.221  0.00  0.00    +0.000 OA
ENDROOT
TORSDOF 0
REMARK  Name = ../refined-set-2016/4uac/4uac_pocket.pdb
REMARK  256 active torsions:
REMARK  status: ('A' for Active; 'I' for Inactive)
REMARK    1  A    between atoms: _1  and  _3
REMARK    2  A    between atoms: _3  and  _4
REMARK    3  A    between atoms: _7  and  _8
REMARK    4  A    between atoms: _13  and  _15
REMARK    5  A    between atoms: _15  and  _16
REMARK    6  A    between atoms: _19  and  _21
REMARK    7  A    between atoms: _21  and  _22
REMARK    8  A    between atoms: _21  and  _24
REMARK    9  A    between atoms: _24  and  _25
REMARK   10  A    between atoms: _25  and  _26
REMARK   11  A    between atoms: _29  and  _31
REMARK   12  A    between atoms: _31  and  _32
REMARK   13  A    between atoms: _31  and  _34
REMARK   14  A    between atoms: _34  and  _35
REMARK   15  A    between atoms: _38  and  _40
REMARK   16  A    between atoms: _40  and  _41
REMARK   17  A    between atoms: _40  and  _43
REMARK   18  A    between atoms: _43  and  _44
REMARK   19  A    between atoms: _46  and  _48
REMARK   20  A    between atoms: _48  and  _49
REMARK   21  A    between atoms: _48  and  _51
REMARK   22  A    between atoms: _51  and  _52
REMARK   23  A    between atoms: _54  and  _56
REMARK   24  A    between atoms: _56  and  _57
REMARK   25  A    between atoms: _56  and  _59
REMARK   26  A    between atoms: _59  and  _60
REMARK   27  A    between atoms: _60  and  _61
REMARK   28  A    between atoms: _64  and  _66
REMARK   29  A    between atoms: _66  and  _67
REMARK   30  A    between atoms: _66  and  _69
REMARK   31  A    between atoms: _69  and  _70
REMARK   32  A    between atoms: _72  and  _74
REMARK   33  A    between atoms: _74  and  _75
REMARK   34  A    between atoms: _74  and  _77
REMARK   35  A    between atoms: _77  and  _78
REMARK   36  A    between atoms: _81  and  _83
REMARK   37  A    between atoms: _83  and  _84
REMARK   38  A    between atoms: _87  and  _89
REMARK   39  A    between atoms: _89  and  _90
REMARK   40  A    between atoms: _89  and  _92
REMARK   41  A    between atoms: _92  and  _93
REMARK   42  A    between atoms: _93  and  _94
REMARK   43  A    between atoms: _94  and  _95
REMARK   44  A    between atoms: _95  and  _96
REMARK   45  A    between atoms: _100  and  _102
REMARK   46  A    between atoms: _102  and  _103
REMARK   47  A    between atoms: _102  and  _105
REMARK   48  A    between atoms: _105  and  _106
REMARK   49  A    between atoms: _109  and  _111
REMARK   50  A    between atoms: _111  and  _112
REMARK   51  A    between atoms: _111  and  _114
REMARK   52  A    between atoms: _117  and  _119
REMARK   53  A    between atoms: _119  and  _120
REMARK   54  A    between atoms: _119  and  _122
REMARK   55  A    between atoms: _122  and  _123
REMARK   56  A    between atoms: _126  and  _128
REMARK   57  A    between atoms: _128  and  _129
REMARK   58  A    between atoms: _128  and  _131
REMARK   59  A    between atoms: _131  and  _132
REMARK   60  A    between atoms: _132  and  _133
REMARK   61  A    between atoms: _135  and  _137
REMARK   62  A    between atoms: _137  and  _138
REMARK   63  A    between atoms: _137  and  _140
REMARK   64  A    between atoms: _140  and  _141
REMARK   65  A    between atoms: _147  and  _149
REMARK   66  A    between atoms: _149  and  _150
REMARK   67  A    between atoms: _153  and  _155
REMARK   68  A    between atoms: _155  and  _156
REMARK   69  A    between atoms: _155  and  _158
REMARK   70  A    between atoms: _158  and  _159
REMARK   71  A    between atoms: _164  and  _166
REMARK   72  A    between atoms: _166  and  _167
REMARK   73  A    between atoms: _166  and  _169
REMARK   74  A    between atoms: _169  and  _170
REMARK   75  A    between atoms: _173  and  _175
REMARK   76  A    between atoms: _175  and  _176
REMARK   77  A    between atoms: _175  and  _178
REMARK   78  A    between atoms: _178  and  _179
REMARK   79  A    between atoms: _179  and  _180
REMARK   80  A    between atoms: _185  and  _187
REMARK   81  A    between atoms: _187  and  _188
REMARK   82  A    between atoms: _187  and  _190
REMARK   83  A    between atoms: _190  and  _191
REMARK   84  A    between atoms: _195  and  _196
REMARK   85  A    between atoms: _201  and  _203
REMARK   86  A    between atoms: _203  and  _204
REMARK   87  A    between atoms: _203  and  _206
REMARK   88  A    between atoms: _206  and  _207
REMARK   89  A    between atoms: _212  and  _213
REMARK   90  A    between atoms: _215  and  _217
REMARK   91  A    between atoms: _217  and  _218
REMARK   92  A    between atoms: _217  and  _220
REMARK   93  A    between atoms: _220  and  _221
REMARK   94  A    between atoms: _224  and  _226
REMARK   95  A    between atoms: _226  and  _227
REMARK   96  A    between atoms: _226  and  _229
REMARK   97  A    between atoms: _229  and  _230
REMARK   98  A    between atoms: _232  and  _234
REMARK   99  A    between atoms: _234  and  _235
REMARK  100  A    between atoms: _234  and  _237
REMARK  101  A    between atoms: _237  and  _238
REMARK  102  A    between atoms: _243  and  _245
REMARK  103  A    between atoms: _245  and  _246
REMARK  104  A    between atoms: _245  and  _248
REMARK  105  A    between atoms: _248  and  _249
REMARK  106  A    between atoms: _252  and  _254
REMARK  107  A    between atoms: _254  and  _255
REMARK  108  A    between atoms: _254  and  _257
REMARK  109  A    between atoms: _257  and  _258
REMARK  110  A    between atoms: _269  and  _270
REMARK  111  A    between atoms: _275  and  _277
REMARK  112  A    between atoms: _277  and  _278
REMARK  113  A    between atoms: _277  and  _280
REMARK  114  A    between atoms: _280  and  _281
REMARK  115  A    between atoms: _284  and  _286
REMARK  116  A    between atoms: _286  and  _287
REMARK  117  A    between atoms: _286  and  _289
REMARK  118  A    between atoms: _289  and  _290
REMARK  119  A    between atoms: _295  and  _297
REMARK  120  A    between atoms: _297  and  _298
REMARK  121  A    between atoms: _300  and  _302
REMARK  122  A    between atoms: _302  and  _303
REMARK  123  A    between atoms: _302  and  _305
REMARK  124  A    between atoms: _305  and  _306
REMARK  125  A    between atoms: _316  and  _318
REMARK  126  A    between atoms: _318  and  _319
REMARK  127  A    between atoms: _318  and  _321
REMARK  128  A    between atoms: _321  and  _322
REMARK  129  A    between atoms: _327  and  _328
REMARK  130  A    between atoms: _330  and  _332
REMARK  131  A    between atoms: _332  and  _333
REMARK  132  A    between atoms: _332  and  _335
REMARK  133  A    between atoms: _335  and  _336
REMARK  134  A    between atoms: _339  and  _341
REMARK  135  A    between atoms: _341  and  _342
REMARK  136  A    between atoms: _341  and  _344
REMARK  137  A    between atoms: _344  and  _345
REMARK  138  A    between atoms: _350  and  _352
REMARK  139  A    between atoms: _352  and  _353
REMARK  140  A    between atoms: _352  and  _355
REMARK  141  A    between atoms: _355  and  _356
REMARK  142  A    between atoms: _361  and  _363
REMARK  143  A    between atoms: _363  and  _364
REMARK  144  A    between atoms: _363  and  _366
REMARK  145  A    between atoms: _366  and  _367
REMARK  146  A    between atoms: _367  and  _368
REMARK  147  A    between atoms: _371  and  _373
REMARK  148  A    between atoms: _373  and  _374
REMARK  149  A    between atoms: _376  and  _378
REMARK  150  A    between atoms: _378  and  _379
REMARK  151  A    between atoms: _378  and  _381
REMARK  152  A    between atoms: _381  and  _382
REMARK  153  A    between atoms: _384  and  _386
REMARK  154  A    between atoms: _386  and  _387
REMARK  155  A    between atoms: _386  and  _389
REMARK  156  A    between atoms: _389  and  _390
REMARK  157  A    between atoms: _395  and  _396
REMARK  158  A    between atoms: _398  and  _400
REMARK  159  A    between atoms: _400  and  _401
REMARK  160  A    between atoms: _400  and  _403
REMARK  161  A    between atoms: _403  and  _404
REMARK  162  A    between atoms: _409  and  _411
REMARK  163  A    between atoms: _411  and  _412
REMARK  164  A    between atoms: _414  and  _416
REMARK  165  A    between atoms: _416  and  _417
REMARK  166  A    between atoms: _416  and  _419
REMARK  167  A    between atoms: _419  and  _420
REMARK  168  A    between atoms: _425  and  _427
REMARK  169  A    between atoms: _427  and  _428
REMARK  170  A    between atoms: _427  and  _430
REMARK  171  A    between atoms: _430  and  _431
REMARK  172  A    between atoms: _441  and  _443
REMARK  173  A    between atoms: _443  and  _444
REMARK  174  A    between atoms: _443  and  _446
REMARK  175  A    between atoms: _446  and  _447
REMARK  176  A    between atoms: _452  and  _454
REMARK  177  A    between atoms: _454  and  _455
REMARK  178  A    between atoms: _454  and  _457
REMARK  179  A    between atoms: _457  and  _458
REMARK  180  A    between atoms: _458  and  _459
REMARK  181  A    between atoms: _459  and  _460
REMARK  182  A    between atoms: _460  and  _461
REMARK  183  A    between atoms: _465  and  _467
REMARK  184  A    between atoms: _467  and  _468
REMARK  185  A    between atoms: _467  and  _470
REMARK  186  A    between atoms: _470  and  _471
REMARK  187  A    between atoms: _477  and  _479
REMARK  188  A    between atoms: _479  and  _480
REMARK  189  A    between atoms: _482  and  _484
REMARK  190  A    between atoms: _484  and  _485
REMARK  191  A    between atoms: _484  and  _487
REMARK  192  A    between atoms: _487  and  _488
REMARK  193  A    between atoms: _490  and  _492
REMARK  194  A    between atoms: _492  and  _493
REMARK  195  A    between atoms: _492  and  _495
REMARK  196  A    between atoms: _495  and  _496
REMARK  197  A    between atoms: _496  and  _497
REMARK  198  A    between atoms: _497  and  _498
REMARK  199  A    between atoms: _498  and  _499
REMARK  200  A    between atoms: _503  and  _505
REMARK  201  A    between atoms: _505  and  _506
REMARK  202  A    between atoms: _505  and  _508
REMARK  203  A    between atoms: _508  and  _509
REMARK  204  A    between atoms: _514  and  _516
REMARK  205  A    between atoms: _516  and  _517
REMARK  206  A    between atoms: _516  and  _519
REMARK  207  A    between atoms: _519  and  _520
REMARK  208  A    between atoms: _520  and  _521
REMARK  209  A    between atoms: _521  and  _522
REMARK  210  A    between atoms: _531  and  _533
REMARK  211  A    between atoms: _533  and  _534
REMARK  212  A    between atoms: _533  and  _536
REMARK  213  A    between atoms: _536  and  _537
REMARK  214  A    between atoms: _537  and  _538
REMARK  215  A    between atoms: _543  and  _545
REMARK  216  A    between atoms: _545  and  _546
REMARK  217  A    between atoms: _545  and  _548
REMARK  218  A    between atoms: _548  and  _549
REMARK  219  A    between atoms: _549  and  _550
REMARK  220  A    between atoms: _555  and  _557
REMARK  221  A    between atoms: _557  and  _558
REMARK  222  A    between atoms: _557  and  _560
REMARK  223  A    between atoms: _560  and  _561
REMARK  224  A    between atoms: _564  and  _566
REMARK  225  A    between atoms: _566  and  _567
REMARK  226  A    between atoms: _566  and  _569
REMARK  227  A    between atoms: _569  and  _570
REMARK  228  A    between atoms: _570  and  _571
REMARK  229  A    between atoms: _573  and  _575
REMARK  230  A    between atoms: _575  and  _576
REMARK  231  A    between atoms: _575  and  _578
REMARK  232  A    between atoms: _578  and  _579
REMARK  233  A    between atoms: _581  and  _583
REMARK  234  A    between atoms: _583  and  _584
REMARK  235  A    between atoms: _586  and  _588
REMARK  236  A    between atoms: _588  and  _589
REMARK  237  A    between atoms: _588  and  _591
REMARK  238  A    between atoms: _591  and  _592
REMARK  239  A    between atoms: _597  and  _598
REMARK  240  A    between atoms: _600  and  _602
REMARK  241  A    between atoms: _602  and  _603
REMARK  242  A    between atoms: _602  and  _605
REMARK  243  A    between atoms: _605  and  _606
REMARK  244  A    between atoms: _616  and  _618
REMARK  245  A    between atoms: _618  and  _619
REMARK  246  A    between atoms: _618  and  _621
REMARK  247  A    between atoms: _621  and  _622
REMARK  248  A    between atoms: _625  and  _627
REMARK  249  A    between atoms: _627  and  _628
REMARK  250  A    between atoms: _631  and  _633
REMARK  251  A    between atoms: _633  and  _634
REMARK  252  A    between atoms: _637  and  _639
REMARK  253  A    between atoms: _639  and  _640
REMARK  254  A    between atoms: _639  and  _642
REMARK  255  A    between atoms: _642  and  _643
REMARK  256  A    between atoms: _647  and  _648
REMARK                            x       y       z     vdW  Elec       q    Type
REMARK                         _______ _______ _______ _____ _____    ______ ____
ROOT
ATOM      1  O   HOH     1      28.126  62.355  30.960  0.00  0.00    +0.000 OA
ENDROOT
TORSDOF 0
REMARK  Name = ../refined-set-2016/4uac/4uac_pocket.pdb
REMARK  256 active torsions:
REMARK  status: ('A' for Active; 'I' for Inactive)
REMARK    1  A    between atoms: _1  and  _3
REMARK    2  A    between atoms: _3  and  _4
REMARK    3  A    between atoms: _7  and  _8
REMARK    4  A    between atoms: _13  and  _15
REMARK    5  A    between atoms: _15  and  _16
REMARK    6  A    between atoms: _19  and  _21
REMARK    7  A    between atoms: _21  and  _22
REMARK    8  A    between atoms: _21  and  _24
REMARK    9  A    between atoms: _24  and  _25
REMARK   10  A    between atoms: _25  and  _26
REMARK   11  A    between atoms: _29  and  _31
REMARK   12  A    between atoms: _31  and  _32
REMARK   13  A    between atoms: _31  and  _34
REMARK   14  A    between atoms: _34  and  _35
REMARK   15  A    between atoms: _38  and  _40
REMARK   16  A    between atoms: _40  and  _41
REMARK   17  A    between atoms: _40  and  _43
REMARK   18  A    between atoms: _43  and  _44
REMARK   19  A    between atoms: _46  and  _48
REMARK   20  A    between atoms: _48  and  _49
REMARK   21  A    between atoms: _48  and  _51
REMARK   22  A    between atoms: _51  and  _52
REMARK   23  A    between atoms: _54  and  _56
REMARK   24  A    between atoms: _56  and  _57
REMARK   25  A    between atoms: _56  and  _59
REMARK   26  A    between atoms: _59  and  _60
REMARK   27  A    between atoms: _60  and  _61
REMARK   28  A    between atoms: _64  and  _66
REMARK   29  A    between atoms: _66  and  _67
REMARK   30  A    between atoms: _66  and  _69
REMARK   31  A    between atoms: _69  and  _70
REMARK   32  A    between atoms: _72  and  _74
REMARK   33  A    between atoms: _74  and  _75
REMARK   34  A    between atoms: _74  and  _77
REMARK   35  A    between atoms: _77  and  _78
REMARK   36  A    between atoms: _81  and  _83
REMARK   37  A    between atoms: _83  and  _84
REMARK   38  A    between atoms: _87  and  _89
REMARK   39  A    between atoms: _89  and  _90
REMARK   40  A    between atoms: _89  and  _92
REMARK   41  A    between atoms: _92  and  _93
REMARK   42  A    between atoms: _93  and  _94
REMARK   43  A    between atoms: _94  and  _95
REMARK   44  A    between atoms: _95  and  _96
REMARK   45  A    between atoms: _100  and  _102
REMARK   46  A    between atoms: _102  and  _103
REMARK   47  A    between atoms: _102  and  _105
REMARK   48  A    between atoms: _105  and  _106
REMARK   49  A    between atoms: _109  and  _111
REMARK   50  A    between atoms: _111  and  _112
REMARK   51  A    between atoms: _111  and  _114
REMARK   52  A    between atoms: _117  and  _119
REMARK   53  A    between atoms: _119  and  _120
REMARK   54  A    between atoms: _119  and  _122
REMARK   55  A    between atoms: _122  and  _123
REMARK   56  A    between atoms: _126  and  _128
REMARK   57  A    between atoms: _128  and  _129
REMARK   58  A    between atoms: _128  and  _131
REMARK   59  A    between atoms: _131  and  _132
REMARK   60  A    between atoms: _132  and  _133
REMARK   61  A    between atoms: _135  and  _137
REMARK   62  A    between atoms: _137  and  _138
REMARK   63  A    between atoms: _137  and  _140
REMARK   64  A    between atoms: _140  and  _141
REMARK   65  A    between atoms: _147  and  _149
REMARK   66  A    between atoms: _149  and  _150
REMARK   67  A    between atoms: _153  and  _155
REMARK   68  A    between atoms: _155  and  _156
REMARK   69  A    between atoms: _155  and  _158
REMARK   70  A    between atoms: _158  and  _159
REMARK   71  A    between atoms: _164  and  _166
REMARK   72  A    between atoms: _166  and  _167
REMARK   73  A    between atoms: _166  and  _169
REMARK   74  A    between atoms: _169  and  _170
REMARK   75  A    between atoms: _173  and  _175
REMARK   76  A    between atoms: _175  and  _176
REMARK   77  A    between atoms: _175  and  _178
REMARK   78  A    between atoms: _178  and  _179
REMARK   79  A    between atoms: _179  and  _180
REMARK   80  A    between atoms: _185  and  _187
REMARK   81  A    between atoms: _187  and  _188
REMARK   82  A    between atoms: _187  and  _190
REMARK   83  A    between atoms: _190  and  _191
REMARK   84  A    between atoms: _195  and  _196
REMARK   85  A    between atoms: _201  and  _203
REMARK   86  A    between atoms: _203  and  _204
REMARK   87  A    between atoms: _203  and  _206
REMARK   88  A    between atoms: _206  and  _207
REMARK   89  A    between atoms: _212  and  _213
REMARK   90  A    between atoms: _215  and  _217
REMARK   91  A    between atoms: _217  and  _218
REMARK   92  A    between atoms: _217  and  _220
REMARK   93  A    between atoms: _220  and  _221
REMARK   94  A    between atoms: _224  and  _226
REMARK   95  A    between atoms: _226  and  _227
REMARK   96  A    between atoms: _226  and  _229
REMARK   97  A    between atoms: _229  and  _230
REMARK   98  A    between atoms: _232  and  _234
REMARK   99  A    between atoms: _234  and  _235
REMARK  100  A    between atoms: _234  and  _237
REMARK  101  A    between atoms: _237  and  _238
REMARK  102  A    between atoms: _243  and  _245
REMARK  103  A    between atoms: _245  and  _246
REMARK  104  A    between atoms: _245  and  _248
REMARK  105  A    between atoms: _248  and  _249
REMARK  106  A    between atoms: _252  and  _254
REMARK  107  A    between atoms: _254  and  _255
REMARK  108  A    between atoms: _254  and  _257
REMARK  109  A    between atoms: _257  and  _258
REMARK  110  A    between atoms: _269  and  _270
REMARK  111  A    between atoms: _275  and  _277
REMARK  112  A    between atoms: _277  and  _278
REMARK  113  A    between atoms: _277  and  _280
REMARK  114  A    between atoms: _280  and  _281
REMARK  115  A    between atoms: _284  and  _286
REMARK  116  A    between atoms: _286  and  _287
REMARK  117  A    between atoms: _286  and  _289
REMARK  118  A    between atoms: _289  and  _290
REMARK  119  A    between atoms: _295  and  _297
REMARK  120  A    between atoms: _297  and  _298
REMARK  121  A    between atoms: _300  and  _302
REMARK  122  A    between atoms: _302  and  _303
REMARK  123  A    between atoms: _302  and  _305
REMARK  124  A    between atoms: _305  and  _306
REMARK  125  A    between atoms: _316  and  _318
REMARK  126  A    between atoms: _318  and  _319
REMARK  127  A    between atoms: _318  and  _321
REMARK  128  A    between atoms: _321  and  _322
REMARK  129  A    between atoms: _327  and  _328
REMARK  130  A    between atoms: _330  and  _332
REMARK  131  A    between atoms: _332  and  _333
REMARK  132  A    between atoms: _332  and  _335
REMARK  133  A    between atoms: _335  and  _336
REMARK  134  A    between atoms: _339  and  _341
REMARK  135  A    between atoms: _341  and  _342
REMARK  136  A    between atoms: _341  and  _344
REMARK  137  A    between atoms: _344  and  _345
REMARK  138  A    between atoms: _350  and  _352
REMARK  139  A    between atoms: _352  and  _353
REMARK  140  A    between atoms: _352  and  _355
REMARK  141  A    between atoms: _355  and  _356
REMARK  142  A    between atoms: _361  and  _363
REMARK  143  A    between atoms: _363  and  _364
REMARK  144  A    between atoms: _363  and  _366
REMARK  145  A    between atoms: _366  and  _367
REMARK  146  A    between atoms: _367  and  _368
REMARK  147  A    between atoms: _371  and  _373
REMARK  148  A    between atoms: _373  and  _374
REMARK  149  A    between atoms: _376  and  _378
REMARK  150  A    between atoms: _378  and  _379
REMARK  151  A    between atoms: _378  and  _381
REMARK  152  A    between atoms: _381  and  _382
REMARK  153  A    between atoms: _384  and  _386
REMARK  154  A    between atoms: _386  and  _387
REMARK  155  A    between atoms: _386  and  _389
REMARK  156  A    between atoms: _389  and  _390
REMARK  157  A    between atoms: _395  and  _396
REMARK  158  A    between atoms: _398  and  _400
REMARK  159  A    between atoms: _400  and  _401
REMARK  160  A    between atoms: _400  and  _403
REMARK  161  A    between atoms: _403  and  _404
REMARK  162  A    between atoms: _409  and  _411
REMARK  163  A    between atoms: _411  and  _412
REMARK  164  A    between atoms: _414  and  _416
REMARK  165  A    between atoms: _416  and  _417
REMARK  166  A    between atoms: _416  and  _419
REMARK  167  A    between atoms: _419  and  _420
REMARK  168  A    between atoms: _425  and  _427
REMARK  169  A    between atoms: _427  and  _428
REMARK  170  A    between atoms: _427  and  _430
REMARK  171  A    between atoms: _430  and  _431
REMARK  172  A    between atoms: _441  and  _443
REMARK  173  A    between atoms: _443  and  _444
REMARK  174  A    between atoms: _443  and  _446
REMARK  175  A    between atoms: _446  and  _447
REMARK  176  A    between atoms: _452  and  _454
REMARK  177  A    between atoms: _454  and  _455
REMARK  178  A    between atoms: _454  and  _457
REMARK  179  A    between atoms: _457  and  _458
REMARK  180  A    between atoms: _458  and  _459
REMARK  181  A    between atoms: _459  and  _460
REMARK  182  A    between atoms: _460  and  _461
REMARK  183  A    between atoms: _465  and  _467
REMARK  184  A    between atoms: _467  and  _468
REMARK  185  A    between atoms: _467  and  _470
REMARK  186  A    between atoms: _470  and  _471
REMARK  187  A    between atoms: _477  and  _479
REMARK  188  A    between atoms: _479  and  _480
REMARK  189  A    between atoms: _482  and  _484
REMARK  190  A    between atoms: _484  and  _485
REMARK  191  A    between atoms: _484  and  _487
REMARK  192  A    between atoms: _487  and  _488
REMARK  193  A    between atoms: _490  and  _492
REMARK  194  A    between atoms: _492  and  _493
REMARK  195  A    between atoms: _492  and  _495
REMARK  196  A    between atoms: _495  and  _496
REMARK  197  A    between atoms: _496  and  _497
REMARK  198  A    between atoms: _497  and  _498
REMARK  199  A    between atoms: _498  and  _499
REMARK  200  A    between atoms: _503  and  _505
REMARK  201  A    between atoms: _505  and  _506
REMARK  202  A    between atoms: _505  and  _508
REMARK  203  A    between atoms: _508  and  _509
REMARK  204  A    between atoms: _514  and  _516
REMARK  205  A    between atoms: _516  and  _517
REMARK  206  A    between atoms: _516  and  _519
REMARK  207  A    between atoms: _519  and  _520
REMARK  208  A    between atoms: _520  and  _521
REMARK  209  A    between atoms: _521  and  _522
REMARK  210  A    between atoms: _531  and  _533
REMARK  211  A    between atoms: _533  and  _534
REMARK  212  A    between atoms: _533  and  _536
REMARK  213  A    between atoms: _536  and  _537
REMARK  214  A    between atoms: _537  and  _538
REMARK  215  A    between atoms: _543  and  _545
REMARK  216  A    between atoms: _545  and  _546
REMARK  217  A    between atoms: _545  and  _548
REMARK  218  A    between atoms: _548  and  _549
REMARK  219  A    between atoms: _549  and  _550
REMARK  220  A    between atoms: _555  and  _557
REMARK  221  A    between atoms: _557  and  _558
REMARK  222  A    between atoms: _557  and  _560
REMARK  223  A    between atoms: _560  and  _561
REMARK  224  A    between atoms: _564  and  _566
REMARK  225  A    between atoms: _566  and  _567
REMARK  226  A    between atoms: _566  and  _569
REMARK  227  A    between atoms: _569  and  _570
REMARK  228  A    between atoms: _570  and  _571
REMARK  229  A    between atoms: _573  and  _575
REMARK  230  A    between atoms: _575  and  _576
REMARK  231  A    between atoms: _575  and  _578
REMARK  232  A    between atoms: _578  and  _579
REMARK  233  A    between atoms: _581  and  _583
REMARK  234  A    between atoms: _583  and  _584
REMARK  235  A    between atoms: _586  and  _588
REMARK  236  A    between atoms: _588  and  _589
REMARK  237  A    between atoms: _588  and  _591
REMARK  238  A    between atoms: _591  and  _592
REMARK  239  A    between atoms: _597  and  _598
REMARK  240  A    between atoms: _600  and  _602
REMARK  241  A    between atoms: _602  and  _603
REMARK  242  A    between atoms: _602  and  _605
REMARK  243  A    between atoms: _605  and  _606
REMARK  244  A    between atoms: _616  and  _618
REMARK  245  A    between atoms: _618  and  _619
REMARK  246  A    between atoms: _618  and  _621
REMARK  247  A    between atoms: _621  and  _622
REMARK  248  A    between atoms: _625  and  _627
REMARK  249  A    between atoms: _627  and  _628
REMARK  250  A    between atoms: _631  and  _633
REMARK  251  A    between atoms: _633  and  _634
REMARK  252  A    between atoms: _637  and  _639
REMARK  253  A    between atoms: _639  and  _640
REMARK  254  A    between atoms: _639  and  _642
REMARK  255  A    between atoms: _642  and  _643
REMARK  256  A    between atoms: _647  and  _648
REMARK                            x       y       z     vdW  Elec       q    Type
REMARK                         _______ _______ _______ _____ _____    ______ ____
ROOT
ATOM      1  O   HOH     1      19.611  70.997  24.273  0.00  0.00    +0.000 OA
ENDROOT
TORSDOF 0
REMARK  Name = ../refined-set-2016/4uac/4uac_pocket.pdb
REMARK  256 active torsions:
REMARK  status: ('A' for Active; 'I' for Inactive)
REMARK    1  A    between atoms: _1  and  _3
REMARK    2  A    between atoms: _3  and  _4
REMARK    3  A    between atoms: _7  and  _8
REMARK    4  A    between atoms: _13  and  _15
REMARK    5  A    between atoms: _15  and  _16
REMARK    6  A    between atoms: _19  and  _21
REMARK    7  A    between atoms: _21  and  _22
REMARK    8  A    between atoms: _21  and  _24
REMARK    9  A    between atoms: _24  and  _25
REMARK   10  A    between atoms: _25  and  _26
REMARK   11  A    between atoms: _29  and  _31
REMARK   12  A    between atoms: _31  and  _32
REMARK   13  A    between atoms: _31  and  _34
REMARK   14  A    between atoms: _34  and  _35
REMARK   15  A    between atoms: _38  and  _40
REMARK   16  A    between atoms: _40  and  _41
REMARK   17  A    between atoms: _40  and  _43
REMARK   18  A    between atoms: _43  and  _44
REMARK   19  A    between atoms: _46  and  _48
REMARK   20  A    between atoms: _48  and  _49
REMARK   21  A    between atoms: _48  and  _51
REMARK   22  A    between atoms: _51  and  _52
REMARK   23  A    between atoms: _54  and  _56
REMARK   24  A    between atoms: _56  and  _57
REMARK   25  A    between atoms: _56  and  _59
REMARK   26  A    between atoms: _59  and  _60
REMARK   27  A    between atoms: _60  and  _61
REMARK   28  A    between atoms: _64  and  _66
REMARK   29  A    between atoms: _66  and  _67
REMARK   30  A    between atoms: _66  and  _69
REMARK   31  A    between atoms: _69  and  _70
REMARK   32  A    between atoms: _72  and  _74
REMARK   33  A    between atoms: _74  and  _75
REMARK   34  A    between atoms: _74  and  _77
REMARK   35  A    between atoms: _77  and  _78
REMARK   36  A    between atoms: _81  and  _83
REMARK   37  A    between atoms: _83  and  _84
REMARK   38  A    between atoms: _87  and  _89
REMARK   39  A    between atoms: _89  and  _90
REMARK   40  A    between atoms: _89  and  _92
REMARK   41  A    between atoms: _92  and  _93
REMARK   42  A    between atoms: _93  and  _94
REMARK   43  A    between atoms: _94  and  _95
REMARK   44  A    between atoms: _95  and  _96
REMARK   45  A    between atoms: _100  and  _102
REMARK   46  A    between atoms: _102  and  _103
REMARK   47  A    between atoms: _102  and  _105
REMARK   48  A    between atoms: _105  and  _106
REMARK   49  A    between atoms: _109  and  _111
REMARK   50  A    between atoms: _111  and  _112
REMARK   51  A    between atoms: _111  and  _114
REMARK   52  A    between atoms: _117  and  _119
REMARK   53  A    between atoms: _119  and  _120
REMARK   54  A    between atoms: _119  and  _122
REMARK   55  A    between atoms: _122  and  _123
REMARK   56  A    between atoms: _126  and  _128
REMARK   57  A    between atoms: _128  and  _129
REMARK   58  A    between atoms: _128  and  _131
REMARK   59  A    between atoms: _131  and  _132
REMARK   60  A    between atoms: _132  and  _133
REMARK   61  A    between atoms: _135  and  _137
REMARK   62  A    between atoms: _137  and  _138
REMARK   63  A    between atoms: _137  and  _140
REMARK   64  A    between atoms: _140  and  _141
REMARK   65  A    between atoms: _147  and  _149
REMARK   66  A    between atoms: _149  and  _150
REMARK   67  A    between atoms: _153  and  _155
REMARK   68  A    between atoms: _155  and  _156
REMARK   69  A    between atoms: _155  and  _158
REMARK   70  A    between atoms: _158  and  _159
REMARK   71  A    between atoms: _164  and  _166
REMARK   72  A    between atoms: _166  and  _167
REMARK   73  A    between atoms: _166  and  _169
REMARK   74  A    between atoms: _169  and  _170
REMARK   75  A    between atoms: _173  and  _175
REMARK   76  A    between atoms: _175  and  _176
REMARK   77  A    between atoms: _175  and  _178
REMARK   78  A    between atoms: _178  and  _179
REMARK   79  A    between atoms: _179  and  _180
REMARK   80  A    between atoms: _185  and  _187
REMARK   81  A    between atoms: _187  and  _188
REMARK   82  A    between atoms: _187  and  _190
REMARK   83  A    between atoms: _190  and  _191
REMARK   84  A    between atoms: _195  and  _196
REMARK   85  A    between atoms: _201  and  _203
REMARK   86  A    between atoms: _203  and  _204
REMARK   87  A    between atoms: _203  and  _206
REMARK   88  A    between atoms: _206  and  _207
REMARK   89  A    between atoms: _212  and  _213
REMARK   90  A    between atoms: _215  and  _217
REMARK   91  A    between atoms: _217  and  _218
REMARK   92  A    between atoms: _217  and  _220
REMARK   93  A    between atoms: _220  and  _221
REMARK   94  A    between atoms: _224  and  _226
REMARK   95  A    between atoms: _226  and  _227
REMARK   96  A    between atoms: _226  and  _229
REMARK   97  A    between atoms: _229  and  _230
REMARK   98  A    between atoms: _232  and  _234
REMARK   99  A    between atoms: _234  and  _235
REMARK  100  A    between atoms: _234  and  _237
REMARK  101  A    between atoms: _237  and  _238
REMARK  102  A    between atoms: _243  and  _245
REMARK  103  A    between atoms: _245  and  _246
REMARK  104  A    between atoms: _245  and  _248
REMARK  105  A    between atoms: _248  and  _249
REMARK  106  A    between atoms: _252  and  _254
REMARK  107  A    between atoms: _254  and  _255
REMARK  108  A    between atoms: _254  and  _257
REMARK  109  A    between atoms: _257  and  _258
REMARK  110  A    between atoms: _269  and  _270
REMARK  111  A    between atoms: _275  and  _277
REMARK  112  A    between atoms: _277  and  _278
REMARK  113  A    between atoms: _277  and  _280
REMARK  114  A    between atoms: _280  and  _281
REMARK  115  A    between atoms: _284  and  _286
REMARK  116  A    between atoms: _286  and  _287
REMARK  117  A    between atoms: _286  and  _289
REMARK  118  A    between atoms: _289  and  _290
REMARK  119  A    between atoms: _295  and  _297
REMARK  120  A    between atoms: _297  and  _298
REMARK  121  A    between atoms: _300  and  _302
REMARK  122  A    between atoms: _302  and  _303
REMARK  123  A    between atoms: _302  and  _305
REMARK  124  A    between atoms: _305  and  _306
REMARK  125  A    between atoms: _316  and  _318
REMARK  126  A    between atoms: _318  and  _319
REMARK  127  A    between atoms: _318  and  _321
REMARK  128  A    between atoms: _321  and  _322
REMARK  129  A    between atoms: _327  and  _328
REMARK  130  A    between atoms: _330  and  _332
REMARK  131  A    between atoms: _332  and  _333
REMARK  132  A    between atoms: _332  and  _335
REMARK  133  A    between atoms: _335  and  _336
REMARK  134  A    between atoms: _339  and  _341
REMARK  135  A    between atoms: _341  and  _342
REMARK  136  A    between atoms: _341  and  _344
REMARK  137  A    between atoms: _344  and  _345
REMARK  138  A    between atoms: _350  and  _352
REMARK  139  A    between atoms: _352  and  _353
REMARK  140  A    between atoms: _352  and  _355
REMARK  141  A    between atoms: _355  and  _356
REMARK  142  A    between atoms: _361  and  _363
REMARK  143  A    between atoms: _363  and  _364
REMARK  144  A    between atoms: _363  and  _366
REMARK  145  A    between atoms: _366  and  _367
REMARK  146  A    between atoms: _367  and  _368
REMARK  147  A    between atoms: _371  and  _373
REMARK  148  A    between atoms: _373  and  _374
REMARK  149  A    between atoms: _376  and  _378
REMARK  150  A    between atoms: _378  and  _379
REMARK  151  A    between atoms: _378  and  _381
REMARK  152  A    between atoms: _381  and  _382
REMARK  153  A    between atoms: _384  and  _386
REMARK  154  A    between atoms: _386  and  _387
REMARK  155  A    between atoms: _386  and  _389
REMARK  156  A    between atoms: _389  and  _390
REMARK  157  A    between atoms: _395  and  _396
REMARK  158  A    between atoms: _398  and  _400
REMARK  159  A    between atoms: _400  and  _401
REMARK  160  A    between atoms: _400  and  _403
REMARK  161  A    between atoms: _403  and  _404
REMARK  162  A    between atoms: _409  and  _411
REMARK  163  A    between atoms: _411  and  _412
REMARK  164  A    between atoms: _414  and  _416
REMARK  165  A    between atoms: _416  and  _417
REMARK  166  A    between atoms: _416  and  _419
REMARK  167  A    between atoms: _419  and  _420
REMARK  168  A    between atoms: _425  and  _427
REMARK  169  A    between atoms: _427  and  _428
REMARK  170  A    between atoms: _427  and  _430
REMARK  171  A    between atoms: _430  and  _431
REMARK  172  A    between atoms: _441  and  _443
REMARK  173  A    between atoms: _443  and  _444
REMARK  174  A    between atoms: _443  and  _446
REMARK  175  A    between atoms: _446  and  _447
REMARK  176  A    between atoms: _452  and  _454
REMARK  177  A    between atoms: _454  and  _455
REMARK  178  A    between atoms: _454  and  _457
REMARK  179  A    between atoms: _457  and  _458
REMARK  180  A    between atoms: _458  and  _459
REMARK  181  A    between atoms: _459  and  _460
REMARK  182  A    between atoms: _460  and  _461
REMARK  183  A    between atoms: _465  and  _467
REMARK  184  A    between atoms: _467  and  _468
REMARK  185  A    between atoms: _467  and  _470
REMARK  186  A    between atoms: _470  and  _471
REMARK  187  A    between atoms: _477  and  _479
REMARK  188  A    between atoms: _479  and  _480
REMARK  189  A    between atoms: _482  and  _484
REMARK  190  A    between atoms: _484  and  _485
REMARK  191  A    between atoms: _484  and  _487
REMARK  192  A    between atoms: _487  and  _488
REMARK  193  A    between atoms: _490  and  _492
REMARK  194  A    between atoms: _492  and  _493
REMARK  195  A    between atoms: _492  and  _495
REMARK  196  A    between atoms: _495  and  _496
REMARK  197  A    between atoms: _496  and  _497
REMARK  198  A    between atoms: _497  and  _498
REMARK  199  A    between atoms: _498  and  _499
REMARK  200  A    between atoms: _503  and  _505
REMARK  201  A    between atoms: _505  and  _506
REMARK  202  A    between atoms: _505  and  _508
REMARK  203  A    between atoms: _508  and  _509
REMARK  204  A    between atoms: _514  and  _516
REMARK  205  A    between atoms: _516  and  _517
REMARK  206  A    between atoms: _516  and  _519
REMARK  207  A    between atoms: _519  and  _520
REMARK  208  A    between atoms: _520  and  _521
REMARK  209  A    between atoms: _521  and  _522
REMARK  210  A    between atoms: _531  and  _533
REMARK  211  A    between atoms: _533  and  _534
REMARK  212  A    between atoms: _533  and  _536
REMARK  213  A    between atoms: _536  and  _537
REMARK  214  A    between atoms: _537  and  _538
REMARK  215  A    between atoms: _543  and  _545
REMARK  216  A    between atoms: _545  and  _546
REMARK  217  A    between atoms: _545  and  _548
REMARK  218  A    between atoms: _548  and  _549
REMARK  219  A    between atoms: _549  and  _550
REMARK  220  A    between atoms: _555  and  _557
REMARK  221  A    between atoms: _557  and  _558
REMARK  222  A    between atoms: _557  and  _560
REMARK  223  A    between atoms: _560  and  _561
REMARK  224  A    between atoms: _564  and  _566
REMARK  225  A    between atoms: _566  and  _567
REMARK  226  A    between atoms: _566  and  _569
REMARK  227  A    between atoms: _569  and  _570
REMARK  228  A    between atoms: _570  and  _571
REMARK  229  A    between atoms: _573  and  _575
REMARK  230  A    between atoms: _575  and  _576
REMARK  231  A    between atoms: _575  and  _578
REMARK  232  A    between atoms: _578  and  _579
REMARK  233  A    between atoms: _581  and  _583
REMARK  234  A    between atoms: _583  and  _584
REMARK  235  A    between atoms: _586  and  _588
REMARK  236  A    between atoms: _588  and  _589
REMARK  237  A    between atoms: _588  and  _591
REMARK  238  A    between atoms: _591  and  _592
REMARK  239  A    between atoms: _597  and  _598
REMARK  240  A    between atoms: _600  and  _602
REMARK  241  A    between atoms: _602  and  _603
REMARK  242  A    between atoms: _602  and  _605
REMARK  243  A    between atoms: _605  and  _606
REMARK  244  A    between atoms: _616  and  _618
REMARK  245  A    between atoms: _618  and  _619
REMARK  246  A    between atoms: _618  and  _621
REMARK  247  A    between atoms: _621  and  _622
REMARK  248  A    between atoms: _625  and  _627
REMARK  249  A    between atoms: _627  and  _628
REMARK  250  A    between atoms: _631  and  _633
REMARK  251  A    between atoms: _633  and  _634
REMARK  252  A    between atoms: _637  and  _639
REMARK  253  A    between atoms: _639  and  _640
REMARK  254  A    between atoms: _639  and  _642
REMARK  255  A    between atoms: _642  and  _643
REMARK  256  A    between atoms: _647  and  _648
REMARK                            x       y       z     vdW  Elec       q    Type
REMARK                         _______ _______ _______ _____ _____    ______ ____
ROOT
ATOM      1  O   HOH     1      34.072  59.284  26.296  0.00  0.00    +0.000 OA
ENDROOT
TORSDOF 0
REMARK  Name = ../refined-set-2016/4uac/4uac_pocket.pdb
REMARK  256 active torsions:
REMARK  status: ('A' for Active; 'I' for Inactive)
REMARK    1  A    between atoms: _1  and  _3
REMARK    2  A    between atoms: _3  and  _4
REMARK    3  A    between atoms: _7  and  _8
REMARK    4  A    between atoms: _13  and  _15
REMARK    5  A    between atoms: _15  and  _16
REMARK    6  A    between atoms: _19  and  _21
REMARK    7  A    between atoms: _21  and  _22
REMARK    8  A    between atoms: _21  and  _24
REMARK    9  A    between atoms: _24  and  _25
REMARK   10  A    between atoms: _25  and  _26
REMARK   11  A    between atoms: _29  and  _31
REMARK   12  A    between atoms: _31  and  _32
REMARK   13  A    between atoms: _31  and  _34
REMARK   14  A    between atoms: _34  and  _35
REMARK   15  A    between atoms: _38  and  _40
REMARK   16  A    between atoms: _40  and  _41
REMARK   17  A    between atoms: _40  and  _43
REMARK   18  A    between atoms: _43  and  _44
REMARK   19  A    between atoms: _46  and  _48
REMARK   20  A    between atoms: _48  and  _49
REMARK   21  A    between atoms: _48  and  _51
REMARK   22  A    between atoms: _51  and  _52
REMARK   23  A    between atoms: _54  and  _56
REMARK   24  A    between atoms: _56  and  _57
REMARK   25  A    between atoms: _56  and  _59
REMARK   26  A    between atoms: _59  and  _60
REMARK   27  A    between atoms: _60  and  _61
REMARK   28  A    between atoms: _64  and  _66
REMARK   29  A    between atoms: _66  and  _67
REMARK   30  A    between atoms: _66  and  _69
REMARK   31  A    between atoms: _69  and  _70
REMARK   32  A    between atoms: _72  and  _74
REMARK   33  A    between atoms: _74  and  _75
REMARK   34  A    between atoms: _74  and  _77
REMARK   35  A    between atoms: _77  and  _78
REMARK   36  A    between atoms: _81  and  _83
REMARK   37  A    between atoms: _83  and  _84
REMARK   38  A    between atoms: _87  and  _89
REMARK   39  A    between atoms: _89  and  _90
REMARK   40  A    between atoms: _89  and  _92
REMARK   41  A    between atoms: _92  and  _93
REMARK   42  A    between atoms: _93  and  _94
REMARK   43  A    between atoms: _94  and  _95
REMARK   44  A    between atoms: _95  and  _96
REMARK   45  A    between atoms: _100  and  _102
REMARK   46  A    between atoms: _102  and  _103
REMARK   47  A    between atoms: _102  and  _105
REMARK   48  A    between atoms: _105  and  _106
REMARK   49  A    between atoms: _109  and  _111
REMARK   50  A    between atoms: _111  and  _112
REMARK   51  A    between atoms: _111  and  _114
REMARK   52  A    between atoms: _117  and  _119
REMARK   53  A    between atoms: _119  and  _120
REMARK   54  A    between atoms: _119  and  _122
REMARK   55  A    between atoms: _122  and  _123
REMARK   56  A    between atoms: _126  and  _128
REMARK   57  A    between atoms: _128  and  _129
REMARK   58  A    between atoms: _128  and  _131
REMARK   59  A    between atoms: _131  and  _132
REMARK   60  A    between atoms: _132  and  _133
REMARK   61  A    between atoms: _135  and  _137
REMARK   62  A    between atoms: _137  and  _138
REMARK   63  A    between atoms: _137  and  _140
REMARK   64  A    between atoms: _140  and  _141
REMARK   65  A    between atoms: _147  and  _149
REMARK   66  A    between atoms: _149  and  _150
REMARK   67  A    between atoms: _153  and  _155
REMARK   68  A    between atoms: _155  and  _156
REMARK   69  A    between atoms: _155  and  _158
REMARK   70  A    between atoms: _158  and  _159
REMARK   71  A    between atoms: _164  and  _166
REMARK   72  A    between atoms: _166  and  _167
REMARK   73  A    between atoms: _166  and  _169
REMARK   74  A    between atoms: _169  and  _170
REMARK   75  A    between atoms: _173  and  _175
REMARK   76  A    between atoms: _175  and  _176
REMARK   77  A    between atoms: _175  and  _178
REMARK   78  A    between atoms: _178  and  _179
REMARK   79  A    between atoms: _179  and  _180
REMARK   80  A    between atoms: _185  and  _187
REMARK   81  A    between atoms: _187  and  _188
REMARK   82  A    between atoms: _187  and  _190
REMARK   83  A    between atoms: _190  and  _191
REMARK   84  A    between atoms: _195  and  _196
REMARK   85  A    between atoms: _201  and  _203
REMARK   86  A    between atoms: _203  and  _204
REMARK   87  A    between atoms: _203  and  _206
REMARK   88  A    between atoms: _206  and  _207
REMARK   89  A    between atoms: _212  and  _213
REMARK   90  A    between atoms: _215  and  _217
REMARK   91  A    between atoms: _217  and  _218
REMARK   92  A    between atoms: _217  and  _220
REMARK   93  A    between atoms: _220  and  _221
REMARK   94  A    between atoms: _224  and  _226
REMARK   95  A    between atoms: _226  and  _227
REMARK   96  A    between atoms: _226  and  _229
REMARK   97  A    between atoms: _229  and  _230
REMARK   98  A    between atoms: _232  and  _234
REMARK   99  A    between atoms: _234  and  _235
REMARK  100  A    between atoms: _234  and  _237
REMARK  101  A    between atoms: _237  and  _238
REMARK  102  A    between atoms: _243  and  _245
REMARK  103  A    between atoms: _245  and  _246
REMARK  104  A    between atoms: _245  and  _248
REMARK  105  A    between atoms: _248  and  _249
REMARK  106  A    between atoms: _252  and  _254
REMARK  107  A    between atoms: _254  and  _255
REMARK  108  A    between atoms: _254  and  _257
REMARK  109  A    between atoms: _257  and  _258
REMARK  110  A    between atoms: _269  and  _270
REMARK  111  A    between atoms: _275  and  _277
REMARK  112  A    between atoms: _277  and  _278
REMARK  113  A    between atoms: _277  and  _280
REMARK  114  A    between atoms: _280  and  _281
REMARK  115  A    between atoms: _284  and  _286
REMARK  116  A    between atoms: _286  and  _287
REMARK  117  A    between atoms: _286  and  _289
REMARK  118  A    between atoms: _289  and  _290
REMARK  119  A    between atoms: _295  and  _297
REMARK  120  A    between atoms: _297  and  _298
REMARK  121  A    between atoms: _300  and  _302
REMARK  122  A    between atoms: _302  and  _303
REMARK  123  A    between atoms: _302  and  _305
REMARK  124  A    between atoms: _305  and  _306
REMARK  125  A    between atoms: _316  and  _318
REMARK  126  A    between atoms: _318  and  _319
REMARK  127  A    between atoms: _318  and  _321
REMARK  128  A    between atoms: _321  and  _322
REMARK  129  A    between atoms: _327  and  _328
REMARK  130  A    between atoms: _330  and  _332
REMARK  131  A    between atoms: _332  and  _333
REMARK  132  A    between atoms: _332  and  _335
REMARK  133  A    between atoms: _335  and  _336
REMARK  134  A    between atoms: _339  and  _341
REMARK  135  A    between atoms: _341  and  _342
REMARK  136  A    between atoms: _341  and  _344
REMARK  137  A    between atoms: _344  and  _345
REMARK  138  A    between atoms: _350  and  _352
REMARK  139  A    between atoms: _352  and  _353
REMARK  140  A    between atoms: _352  and  _355
REMARK  141  A    between atoms: _355  and  _356
REMARK  142  A    between atoms: _361  and  _363
REMARK  143  A    between atoms: _363  and  _364
REMARK  144  A    between atoms: _363  and  _366
REMARK  145  A    between atoms: _366  and  _367
REMARK  146  A    between atoms: _367  and  _368
REMARK  147  A    between atoms: _371  and  _373
REMARK  148  A    between atoms: _373  and  _374
REMARK  149  A    between atoms: _376  and  _378
REMARK  150  A    between atoms: _378  and  _379
REMARK  151  A    between atoms: _378  and  _381
REMARK  152  A    between atoms: _381  and  _382
REMARK  153  A    between atoms: _384  and  _386
REMARK  154  A    between atoms: _386  and  _387
REMARK  155  A    between atoms: _386  and  _389
REMARK  156  A    between atoms: _389  and  _390
REMARK  157  A    between atoms: _395  and  _396
REMARK  158  A    between atoms: _398  and  _400
REMARK  159  A    between atoms: _400  and  _401
REMARK  160  A    between atoms: _400  and  _403
REMARK  161  A    between atoms: _403  and  _404
REMARK  162  A    between atoms: _409  and  _411
REMARK  163  A    between atoms: _411  and  _412
REMARK  164  A    between atoms: _414  and  _416
REMARK  165  A    between atoms: _416  and  _417
REMARK  166  A    between atoms: _416  and  _419
REMARK  167  A    between atoms: _419  and  _420
REMARK  168  A    between atoms: _425  and  _427
REMARK  169  A    between atoms: _427  and  _428
REMARK  170  A    between atoms: _427  and  _430
REMARK  171  A    between atoms: _430  and  _431
REMARK  172  A    between atoms: _441  and  _443
REMARK  173  A    between atoms: _443  and  _444
REMARK  174  A    between atoms: _443  and  _446
REMARK  175  A    between atoms: _446  and  _447
REMARK  176  A    between atoms: _452  and  _454
REMARK  177  A    between atoms: _454  and  _455
REMARK  178  A    between atoms: _454  and  _457
REMARK  179  A    between atoms: _457  and  _458
REMARK  180  A    between atoms: _458  and  _459
REMARK  181  A    between atoms: _459  and  _460
REMARK  182  A    between atoms: _460  and  _461
REMARK  183  A    between atoms: _465  and  _467
REMARK  184  A    between atoms: _467  and  _468
REMARK  185  A    between atoms: _467  and  _470
REMARK  186  A    between atoms: _470  and  _471
REMARK  187  A    between atoms: _477  and  _479
REMARK  188  A    between atoms: _479  and  _480
REMARK  189  A    between atoms: _482  and  _484
REMARK  190  A    between atoms: _484  and  _485
REMARK  191  A    between atoms: _484  and  _487
REMARK  192  A    between atoms: _487  and  _488
REMARK  193  A    between atoms: _490  and  _492
REMARK  194  A    between atoms: _492  and  _493
REMARK  195  A    between atoms: _492  and  _495
REMARK  196  A    between atoms: _495  and  _496
REMARK  197  A    between atoms: _496  and  _497
REMARK  198  A    between atoms: _497  and  _498
REMARK  199  A    between atoms: _498  and  _499
REMARK  200  A    between atoms: _503  and  _505
REMARK  201  A    between atoms: _505  and  _506
REMARK  202  A    between atoms: _505  and  _508
REMARK  203  A    between atoms: _508  and  _509
REMARK  204  A    between atoms: _514  and  _516
REMARK  205  A    between atoms: _516  and  _517
REMARK  206  A    between atoms: _516  and  _519
REMARK  207  A    between atoms: _519  and  _520
REMARK  208  A    between atoms: _520  and  _521
REMARK  209  A    between atoms: _521  and  _522
REMARK  210  A    between atoms: _531  and  _533
REMARK  211  A    between atoms: _533  and  _534
REMARK  212  A    between atoms: _533  and  _536
REMARK  213  A    between atoms: _536  and  _537
REMARK  214  A    between atoms: _537  and  _538
REMARK  215  A    between atoms: _543  and  _545
REMARK  216  A    between atoms: _545  and  _546
REMARK  217  A    between atoms: _545  and  _548
REMARK  218  A    between atoms: _548  and  _549
REMARK  219  A    between atoms: _549  and  _550
REMARK  220  A    between atoms: _555  and  _557
REMARK  221  A    between atoms: _557  and  _558
REMARK  222  A    between atoms: _557  and  _560
REMARK  223  A    between atoms: _560  and  _561
REMARK  224  A    between atoms: _564  and  _566
REMARK  225  A    between atoms: _566  and  _567
REMARK  226  A    between atoms: _566  and  _569
REMARK  227  A    between atoms: _569  and  _570
REMARK  228  A    between atoms: _570  and  _571
REMARK  229  A    between atoms: _573  and  _575
REMARK  230  A    between atoms: _575  and  _576
REMARK  231  A    between atoms: _575  and  _578
REMARK  232  A    between atoms: _578  and  _579
REMARK  233  A    between atoms: _581  and  _583
REMARK  234  A    between atoms: _583  and  _584
REMARK  235  A    between atoms: _586  and  _588
REMARK  236  A    between atoms: _588  and  _589
REMARK  237  A    between atoms: _588  and  _591
REMARK  238  A    between atoms: _591  and  _592
REMARK  239  A    between atoms: _597  and  _598
REMARK  240  A    between atoms: _600  and  _602
REMARK  241  A    between atoms: _602  and  _603
REMARK  242  A    between atoms: _602  and  _605
REMARK  243  A    between atoms: _605  and  _606
REMARK  244  A    between atoms: _616  and  _618
REMARK  245  A    between atoms: _618  and  _619
REMARK  246  A    between atoms: _618  and  _621
REMARK  247  A    between atoms: _621  and  _622
REMARK  248  A    between atoms: _625  and  _627
REMARK  249  A    between atoms: _627  and  _628
REMARK  250  A    between atoms: _631  and  _633
REMARK  251  A    between atoms: _633  and  _634
REMARK  252  A    between atoms: _637  and  _639
REMARK  253  A    between atoms: _639  and  _640
REMARK  254  A    between atoms: _639  and  _642
REMARK  255  A    between atoms: _642  and  _643
REMARK  256  A    between atoms: _647  and  _648
REMARK                            x       y       z     vdW  Elec       q    Type
REMARK                         _______ _______ _______ _____ _____    ______ ____
ROOT
ATOM      1  O   HOH     1      37.206  63.347  32.350  0.00  0.00    +0.000 OA
ENDROOT
TORSDOF 0
REMARK  Name = ../refined-set-2016/4uac/4uac_pocket.pdb
REMARK  256 active torsions:
REMARK  status: ('A' for Active; 'I' for Inactive)
REMARK    1  A    between atoms: _1  and  _3
REMARK    2  A    between atoms: _3  and  _4
REMARK    3  A    between atoms: _7  and  _8
REMARK    4  A    between atoms: _13  and  _15
REMARK    5  A    between atoms: _15  and  _16
REMARK    6  A    between atoms: _19  and  _21
REMARK    7  A    between atoms: _21  and  _22
REMARK    8  A    between atoms: _21  and  _24
REMARK    9  A    between atoms: _24  and  _25
REMARK   10  A    between atoms: _25  and  _26
REMARK   11  A    between atoms: _29  and  _31
REMARK   12  A    between atoms: _31  and  _32
REMARK   13  A    between atoms: _31  and  _34
REMARK   14  A    between atoms: _34  and  _35
REMARK   15  A    between atoms: _38  and  _40
REMARK   16  A    between atoms: _40  and  _41
REMARK   17  A    between atoms: _40  and  _43
REMARK   18  A    between atoms: _43  and  _44
REMARK   19  A    between atoms: _46  and  _48
REMARK   20  A    between atoms: _48  and  _49
REMARK   21  A    between atoms: _48  and  _51
REMARK   22  A    between atoms: _51  and  _52
REMARK   23  A    between atoms: _54  and  _56
REMARK   24  A    between atoms: _56  and  _57
REMARK   25  A    between atoms: _56  and  _59
REMARK   26  A    between atoms: _59  and  _60
REMARK   27  A    between atoms: _60  and  _61
REMARK   28  A    between atoms: _64  and  _66
REMARK   29  A    between atoms: _66  and  _67
REMARK   30  A    between atoms: _66  and  _69
REMARK   31  A    between atoms: _69  and  _70
REMARK   32  A    between atoms: _72  and  _74
REMARK   33  A    between atoms: _74  and  _75
REMARK   34  A    between atoms: _74  and  _77
REMARK   35  A    between atoms: _77  and  _78
REMARK   36  A    between atoms: _81  and  _83
REMARK   37  A    between atoms: _83  and  _84
REMARK   38  A    between atoms: _87  and  _89
REMARK   39  A    between atoms: _89  and  _90
REMARK   40  A    between atoms: _89  and  _92
REMARK   41  A    between atoms: _92  and  _93
REMARK   42  A    between atoms: _93  and  _94
REMARK   43  A    between atoms: _94  and  _95
REMARK   44  A    between atoms: _95  and  _96
REMARK   45  A    between atoms: _100  and  _102
REMARK   46  A    between atoms: _102  and  _103
REMARK   47  A    between atoms: _102  and  _105
REMARK   48  A    between atoms: _105  and  _106
REMARK   49  A    between atoms: _109  and  _111
REMARK   50  A    between atoms: _111  and  _112
REMARK   51  A    between atoms: _111  and  _114
REMARK   52  A    between atoms: _117  and  _119
REMARK   53  A    between atoms: _119  and  _120
REMARK   54  A    between atoms: _119  and  _122
REMARK   55  A    between atoms: _122  and  _123
REMARK   56  A    between atoms: _126  and  _128
REMARK   57  A    between atoms: _128  and  _129
REMARK   58  A    between atoms: _128  and  _131
REMARK   59  A    between atoms: _131  and  _132
REMARK   60  A    between atoms: _132  and  _133
REMARK   61  A    between atoms: _135  and  _137
REMARK   62  A    between atoms: _137  and  _138
REMARK   63  A    between atoms: _137  and  _140
REMARK   64  A    between atoms: _140  and  _141
REMARK   65  A    between atoms: _147  and  _149
REMARK   66  A    between atoms: _149  and  _150
REMARK   67  A    between atoms: _153  and  _155
REMARK   68  A    between atoms: _155  and  _156
REMARK   69  A    between atoms: _155  and  _158
REMARK   70  A    between atoms: _158  and  _159
REMARK   71  A    between atoms: _164  and  _166
REMARK   72  A    between atoms: _166  and  _167
REMARK   73  A    between atoms: _166  and  _169
REMARK   74  A    between atoms: _169  and  _170
REMARK   75  A    between atoms: _173  and  _175
REMARK   76  A    between atoms: _175  and  _176
REMARK   77  A    between atoms: _175  and  _178
REMARK   78  A    between atoms: _178  and  _179
REMARK   79  A    between atoms: _179  and  _180
REMARK   80  A    between atoms: _185  and  _187
REMARK   81  A    between atoms: _187  and  _188
REMARK   82  A    between atoms: _187  and  _190
REMARK   83  A    between atoms: _190  and  _191
REMARK   84  A    between atoms: _195  and  _196
REMARK   85  A    between atoms: _201  and  _203
REMARK   86  A    between atoms: _203  and  _204
REMARK   87  A    between atoms: _203  and  _206
REMARK   88  A    between atoms: _206  and  _207
REMARK   89  A    between atoms: _212  and  _213
REMARK   90  A    between atoms: _215  and  _217
REMARK   91  A    between atoms: _217  and  _218
REMARK   92  A    between atoms: _217  and  _220
REMARK   93  A    between atoms: _220  and  _221
REMARK   94  A    between atoms: _224  and  _226
REMARK   95  A    between atoms: _226  and  _227
REMARK   96  A    between atoms: _226  and  _229
REMARK   97  A    between atoms: _229  and  _230
REMARK   98  A    between atoms: _232  and  _234
REMARK   99  A    between atoms: _234  and  _235
REMARK  100  A    between atoms: _234  and  _237
REMARK  101  A    between atoms: _237  and  _238
REMARK  102  A    between atoms: _243  and  _245
REMARK  103  A    between atoms: _245  and  _246
REMARK  104  A    between atoms: _245  and  _248
REMARK  105  A    between atoms: _248  and  _249
REMARK  106  A    between atoms: _252  and  _254
REMARK  107  A    between atoms: _254  and  _255
REMARK  108  A    between atoms: _254  and  _257
REMARK  109  A    between atoms: _257  and  _258
REMARK  110  A    between atoms: _269  and  _270
REMARK  111  A    between atoms: _275  and  _277
REMARK  112  A    between atoms: _277  and  _278
REMARK  113  A    between atoms: _277  and  _280
REMARK  114  A    between atoms: _280  and  _281
REMARK  115  A    between atoms: _284  and  _286
REMARK  116  A    between atoms: _286  and  _287
REMARK  117  A    between atoms: _286  and  _289
REMARK  118  A    between atoms: _289  and  _290
REMARK  119  A    between atoms: _295  and  _297
REMARK  120  A    between atoms: _297  and  _298
REMARK  121  A    between atoms: _300  and  _302
REMARK  122  A    between atoms: _302  and  _303
REMARK  123  A    between atoms: _302  and  _305
REMARK  124  A    between atoms: _305  and  _306
REMARK  125  A    between atoms: _316  and  _318
REMARK  126  A    between atoms: _318  and  _319
REMARK  127  A    between atoms: _318  and  _321
REMARK  128  A    between atoms: _321  and  _322
REMARK  129  A    between atoms: _327  and  _328
REMARK  130  A    between atoms: _330  and  _332
REMARK  131  A    between atoms: _332  and  _333
REMARK  132  A    between atoms: _332  and  _335
REMARK  133  A    between atoms: _335  and  _336
REMARK  134  A    between atoms: _339  and  _341
REMARK  135  A    between atoms: _341  and  _342
REMARK  136  A    between atoms: _341  and  _344
REMARK  137  A    between atoms: _344  and  _345
REMARK  138  A    between atoms: _350  and  _352
REMARK  139  A    between atoms: _352  and  _353
REMARK  140  A    between atoms: _352  and  _355
REMARK  141  A    between atoms: _355  and  _356
REMARK  142  A    between atoms: _361  and  _363
REMARK  143  A    between atoms: _363  and  _364
REMARK  144  A    between atoms: _363  and  _366
REMARK  145  A    between atoms: _366  and  _367
REMARK  146  A    between atoms: _367  and  _368
REMARK  147  A    between atoms: _371  and  _373
REMARK  148  A    between atoms: _373  and  _374
REMARK  149  A    between atoms: _376  and  _378
REMARK  150  A    between atoms: _378  and  _379
REMARK  151  A    between atoms: _378  and  _381
REMARK  152  A    between atoms: _381  and  _382
REMARK  153  A    between atoms: _384  and  _386
REMARK  154  A    between atoms: _386  and  _387
REMARK  155  A    between atoms: _386  and  _389
REMARK  156  A    between atoms: _389  and  _390
REMARK  157  A    between atoms: _395  and  _396
REMARK  158  A    between atoms: _398  and  _400
REMARK  159  A    between atoms: _400  and  _401
REMARK  160  A    between atoms: _400  and  _403
REMARK  161  A    between atoms: _403  and  _404
REMARK  162  A    between atoms: _409  and  _411
REMARK  163  A    between atoms: _411  and  _412
REMARK  164  A    between atoms: _414  and  _416
REMARK  165  A    between atoms: _416  and  _417
REMARK  166  A    between atoms: _416  and  _419
REMARK  167  A    between atoms: _419  and  _420
REMARK  168  A    between atoms: _425  and  _427
REMARK  169  A    between atoms: _427  and  _428
REMARK  170  A    between atoms: _427  and  _430
REMARK  171  A    between atoms: _430  and  _431
REMARK  172  A    between atoms: _441  and  _443
REMARK  173  A    between atoms: _443  and  _444
REMARK  174  A    between atoms: _443  and  _446
REMARK  175  A    between atoms: _446  and  _447
REMARK  176  A    between atoms: _452  and  _454
REMARK  177  A    between atoms: _454  and  _455
REMARK  178  A    between atoms: _454  and  _457
REMARK  179  A    between atoms: _457  and  _458
REMARK  180  A    between atoms: _458  and  _459
REMARK  181  A    between atoms: _459  and  _460
REMARK  182  A    between atoms: _460  and  _461
REMARK  183  A    between atoms: _465  and  _467
REMARK  184  A    between atoms: _467  and  _468
REMARK  185  A    between atoms: _467  and  _470
REMARK  186  A    between atoms: _470  and  _471
REMARK  187  A    between atoms: _477  and  _479
REMARK  188  A    between atoms: _479  and  _480
REMARK  189  A    between atoms: _482  and  _484
REMARK  190  A    between atoms: _484  and  _485
REMARK  191  A    between atoms: _484  and  _487
REMARK  192  A    between atoms: _487  and  _488
REMARK  193  A    between atoms: _490  and  _492
REMARK  194  A    between atoms: _492  and  _493
REMARK  195  A    between atoms: _492  and  _495
REMARK  196  A    between atoms: _495  and  _496
REMARK  197  A    between atoms: _496  and  _497
REMARK  198  A    between atoms: _497  and  _498
REMARK  199  A    between atoms: _498  and  _499
REMARK  200  A    between atoms: _503  and  _505
REMARK  201  A    between atoms: _505  and  _506
REMARK  202  A    between atoms: _505  and  _508
REMARK  203  A    between atoms: _508  and  _509
REMARK  204  A    between atoms: _514  and  _516
REMARK  205  A    between atoms: _516  and  _517
REMARK  206  A    between atoms: _516  and  _519
REMARK  207  A    between atoms: _519  and  _520
REMARK  208  A    between atoms: _520  and  _521
REMARK  209  A    between atoms: _521  and  _522
REMARK  210  A    between atoms: _531  and  _533
REMARK  211  A    between atoms: _533  and  _534
REMARK  212  A    between atoms: _533  and  _536
REMARK  213  A    between atoms: _536  and  _537
REMARK  214  A    between atoms: _537  and  _538
REMARK  215  A    between atoms: _543  and  _545
REMARK  216  A    between atoms: _545  and  _546
REMARK  217  A    between atoms: _545  and  _548
REMARK  218  A    between atoms: _548  and  _549
REMARK  219  A    between atoms: _549  and  _550
REMARK  220  A    between atoms: _555  and  _557
REMARK  221  A    between atoms: _557  and  _558
REMARK  222  A    between atoms: _557  and  _560
REMARK  223  A    between atoms: _560  and  _561
REMARK  224  A    between atoms: _564  and  _566
REMARK  225  A    between atoms: _566  and  _567
REMARK  226  A    between atoms: _566  and  _569
REMARK  227  A    between atoms: _569  and  _570
REMARK  228  A    between atoms: _570  and  _571
REMARK  229  A    between atoms: _573  and  _575
REMARK  230  A    between atoms: _575  and  _576
REMARK  231  A    between atoms: _575  and  _578
REMARK  232  A    between atoms: _578  and  _579
REMARK  233  A    between atoms: _581  and  _583
REMARK  234  A    between atoms: _583  and  _584
REMARK  235  A    between atoms: _586  and  _588
REMARK  236  A    between atoms: _588  and  _589
REMARK  237  A    between atoms: _588  and  _591
REMARK  238  A    between atoms: _591  and  _592
REMARK  239  A    between atoms: _597  and  _598
REMARK  240  A    between atoms: _600  and  _602
REMARK  241  A    between atoms: _602  and  _603
REMARK  242  A    between atoms: _602  and  _605
REMARK  243  A    between atoms: _605  and  _606
REMARK  244  A    between atoms: _616  and  _618
REMARK  245  A    between atoms: _618  and  _619
REMARK  246  A    between atoms: _618  and  _621
REMARK  247  A    between atoms: _621  and  _622
REMARK  248  A    between atoms: _625  and  _627
REMARK  249  A    between atoms: _627  and  _628
REMARK  250  A    between atoms: _631  and  _633
REMARK  251  A    between atoms: _633  and  _634
REMARK  252  A    between atoms: _637  and  _639
REMARK  253  A    between atoms: _639  and  _640
REMARK  254  A    between atoms: _639  and  _642
REMARK  255  A    between atoms: _642  and  _643
REMARK  256  A    between atoms: _647  and  _648
REMARK                            x       y       z     vdW  Elec       q    Type
REMARK                         _______ _______ _______ _____ _____    ______ ____
ROOT
ATOM      1  O   HOH     1      35.824  55.331  26.605  0.00  0.00    +0.000 OA
ENDROOT
TORSDOF 0
REMARK  Name = ../refined-set-2016/4uac/4uac_pocket.pdb
REMARK  256 active torsions:
REMARK  status: ('A' for Active; 'I' for Inactive)
REMARK    1  A    between atoms: _1  and  _3
REMARK    2  A    between atoms: _3  and  _4
REMARK    3  A    between atoms: _7  and  _8
REMARK    4  A    between atoms: _13  and  _15
REMARK    5  A    between atoms: _15  and  _16
REMARK    6  A    between atoms: _19  and  _21
REMARK    7  A    between atoms: _21  and  _22
REMARK    8  A    between atoms: _21  and  _24
REMARK    9  A    between atoms: _24  and  _25
REMARK   10  A    between atoms: _25  and  _26
REMARK   11  A    between atoms: _29  and  _31
REMARK   12  A    between atoms: _31  and  _32
REMARK   13  A    between atoms: _31  and  _34
REMARK   14  A    between atoms: _34  and  _35
REMARK   15  A    between atoms: _38  and  _40
REMARK   16  A    between atoms: _40  and  _41
REMARK   17  A    between atoms: _40  and  _43
REMARK   18  A    between atoms: _43  and  _44
REMARK   19  A    between atoms: _46  and  _48
REMARK   20  A    between atoms: _48  and  _49
REMARK   21  A    between atoms: _48  and  _51
REMARK   22  A    between atoms: _51  and  _52
REMARK   23  A    between atoms: _54  and  _56
REMARK   24  A    between atoms: _56  and  _57
REMARK   25  A    between atoms: _56  and  _59
REMARK   26  A    between atoms: _59  and  _60
REMARK   27  A    between atoms: _60  and  _61
REMARK   28  A    between atoms: _64  and  _66
REMARK   29  A    between atoms: _66  and  _67
REMARK   30  A    between atoms: _66  and  _69
REMARK   31  A    between atoms: _69  and  _70
REMARK   32  A    between atoms: _72  and  _74
REMARK   33  A    between atoms: _74  and  _75
REMARK   34  A    between atoms: _74  and  _77
REMARK   35  A    between atoms: _77  and  _78
REMARK   36  A    between atoms: _81  and  _83
REMARK   37  A    between atoms: _83  and  _84
REMARK   38  A    between atoms: _87  and  _89
REMARK   39  A    between atoms: _89  and  _90
REMARK   40  A    between atoms: _89  and  _92
REMARK   41  A    between atoms: _92  and  _93
REMARK   42  A    between atoms: _93  and  _94
REMARK   43  A    between atoms: _94  and  _95
REMARK   44  A    between atoms: _95  and  _96
REMARK   45  A    between atoms: _100  and  _102
REMARK   46  A    between atoms: _102  and  _103
REMARK   47  A    between atoms: _102  and  _105
REMARK   48  A    between atoms: _105  and  _106
REMARK   49  A    between atoms: _109  and  _111
REMARK   50  A    between atoms: _111  and  _112
REMARK   51  A    between atoms: _111  and  _114
REMARK   52  A    between atoms: _117  and  _119
REMARK   53  A    between atoms: _119  and  _120
REMARK   54  A    between atoms: _119  and  _122
REMARK   55  A    between atoms: _122  and  _123
REMARK   56  A    between atoms: _126  and  _128
REMARK   57  A    between atoms: _128  and  _129
REMARK   58  A    between atoms: _128  and  _131
REMARK   59  A    between atoms: _131  and  _132
REMARK   60  A    between atoms: _132  and  _133
REMARK   61  A    between atoms: _135  and  _137
REMARK   62  A    between atoms: _137  and  _138
REMARK   63  A    between atoms: _137  and  _140
REMARK   64  A    between atoms: _140  and  _141
REMARK   65  A    between atoms: _147  and  _149
REMARK   66  A    between atoms: _149  and  _150
REMARK   67  A    between atoms: _153  and  _155
REMARK   68  A    between atoms: _155  and  _156
REMARK   69  A    between atoms: _155  and  _158
REMARK   70  A    between atoms: _158  and  _159
REMARK   71  A    between atoms: _164  and  _166
REMARK   72  A    between atoms: _166  and  _167
REMARK   73  A    between atoms: _166  and  _169
REMARK   74  A    between atoms: _169  and  _170
REMARK   75  A    between atoms: _173  and  _175
REMARK   76  A    between atoms: _175  and  _176
REMARK   77  A    between atoms: _175  and  _178
REMARK   78  A    between atoms: _178  and  _179
REMARK   79  A    between atoms: _179  and  _180
REMARK   80  A    between atoms: _185  and  _187
REMARK   81  A    between atoms: _187  and  _188
REMARK   82  A    between atoms: _187  and  _190
REMARK   83  A    between atoms: _190  and  _191
REMARK   84  A    between atoms: _195  and  _196
REMARK   85  A    between atoms: _201  and  _203
REMARK   86  A    between atoms: _203  and  _204
REMARK   87  A    between atoms: _203  and  _206
REMARK   88  A    between atoms: _206  and  _207
REMARK   89  A    between atoms: _212  and  _213
REMARK   90  A    between atoms: _215  and  _217
REMARK   91  A    between atoms: _217  and  _218
REMARK   92  A    between atoms: _217  and  _220
REMARK   93  A    between atoms: _220  and  _221
REMARK   94  A    between atoms: _224  and  _226
REMARK   95  A    between atoms: _226  and  _227
REMARK   96  A    between atoms: _226  and  _229
REMARK   97  A    between atoms: _229  and  _230
REMARK   98  A    between atoms: _232  and  _234
REMARK   99  A    between atoms: _234  and  _235
REMARK  100  A    between atoms: _234  and  _237
REMARK  101  A    between atoms: _237  and  _238
REMARK  102  A    between atoms: _243  and  _245
REMARK  103  A    between atoms: _245  and  _246
REMARK  104  A    between atoms: _245  and  _248
REMARK  105  A    between atoms: _248  and  _249
REMARK  106  A    between atoms: _252  and  _254
REMARK  107  A    between atoms: _254  and  _255
REMARK  108  A    between atoms: _254  and  _257
REMARK  109  A    between atoms: _257  and  _258
REMARK  110  A    between atoms: _269  and  _270
REMARK  111  A    between atoms: _275  and  _277
REMARK  112  A    between atoms: _277  and  _278
REMARK  113  A    between atoms: _277  and  _280
REMARK  114  A    between atoms: _280  and  _281
REMARK  115  A    between atoms: _284  and  _286
REMARK  116  A    between atoms: _286  and  _287
REMARK  117  A    between atoms: _286  and  _289
REMARK  118  A    between atoms: _289  and  _290
REMARK  119  A    between atoms: _295  and  _297
REMARK  120  A    between atoms: _297  and  _298
REMARK  121  A    between atoms: _300  and  _302
REMARK  122  A    between atoms: _302  and  _303
REMARK  123  A    between atoms: _302  and  _305
REMARK  124  A    between atoms: _305  and  _306
REMARK  125  A    between atoms: _316  and  _318
REMARK  126  A    between atoms: _318  and  _319
REMARK  127  A    between atoms: _318  and  _321
REMARK  128  A    between atoms: _321  and  _322
REMARK  129  A    between atoms: _327  and  _328
REMARK  130  A    between atoms: _330  and  _332
REMARK  131  A    between atoms: _332  and  _333
REMARK  132  A    between atoms: _332  and  _335
REMARK  133  A    between atoms: _335  and  _336
REMARK  134  A    between atoms: _339  and  _341
REMARK  135  A    between atoms: _341  and  _342
REMARK  136  A    between atoms: _341  and  _344
REMARK  137  A    between atoms: _344  and  _345
REMARK  138  A    between atoms: _350  and  _352
REMARK  139  A    between atoms: _352  and  _353
REMARK  140  A    between atoms: _352  and  _355
REMARK  141  A    between atoms: _355  and  _356
REMARK  142  A    between atoms: _361  and  _363
REMARK  143  A    between atoms: _363  and  _364
REMARK  144  A    between atoms: _363  and  _366
REMARK  145  A    between atoms: _366  and  _367
REMARK  146  A    between atoms: _367  and  _368
REMARK  147  A    between atoms: _371  and  _373
REMARK  148  A    between atoms: _373  and  _374
REMARK  149  A    between atoms: _376  and  _378
REMARK  150  A    between atoms: _378  and  _379
REMARK  151  A    between atoms: _378  and  _381
REMARK  152  A    between atoms: _381  and  _382
REMARK  153  A    between atoms: _384  and  _386
REMARK  154  A    between atoms: _386  and  _387
REMARK  155  A    between atoms: _386  and  _389
REMARK  156  A    between atoms: _389  and  _390
REMARK  157  A    between atoms: _395  and  _396
REMARK  158  A    between atoms: _398  and  _400
REMARK  159  A    between atoms: _400  and  _401
REMARK  160  A    between atoms: _400  and  _403
REMARK  161  A    between atoms: _403  and  _404
REMARK  162  A    between atoms: _409  and  _411
REMARK  163  A    between atoms: _411  and  _412
REMARK  164  A    between atoms: _414  and  _416
REMARK  165  A    between atoms: _416  and  _417
REMARK  166  A    between atoms: _416  and  _419
REMARK  167  A    between atoms: _419  and  _420
REMARK  168  A    between atoms: _425  and  _427
REMARK  169  A    between atoms: _427  and  _428
REMARK  170  A    between atoms: _427  and  _430
REMARK  171  A    between atoms: _430  and  _431
REMARK  172  A    between atoms: _441  and  _443
REMARK  173  A    between atoms: _443  and  _444
REMARK  174  A    between atoms: _443  and  _446
REMARK  175  A    between atoms: _446  and  _447
REMARK  176  A    between atoms: _452  and  _454
REMARK  177  A    between atoms: _454  and  _455
REMARK  178  A    between atoms: _454  and  _457
REMARK  179  A    between atoms: _457  and  _458
REMARK  180  A    between atoms: _458  and  _459
REMARK  181  A    between atoms: _459  and  _460
REMARK  182  A    between atoms: _460  and  _461
REMARK  183  A    between atoms: _465  and  _467
REMARK  184  A    between atoms: _467  and  _468
REMARK  185  A    between atoms: _467  and  _470
REMARK  186  A    between atoms: _470  and  _471
REMARK  187  A    between atoms: _477  and  _479
REMARK  188  A    between atoms: _479  and  _480
REMARK  189  A    between atoms: _482  and  _484
REMARK  190  A    between atoms: _484  and  _485
REMARK  191  A    between atoms: _484  and  _487
REMARK  192  A    between atoms: _487  and  _488
REMARK  193  A    between atoms: _490  and  _492
REMARK  194  A    between atoms: _492  and  _493
REMARK  195  A    between atoms: _492  and  _495
REMARK  196  A    between atoms: _495  and  _496
REMARK  197  A    between atoms: _496  and  _497
REMARK  198  A    between atoms: _497  and  _498
REMARK  199  A    between atoms: _498  and  _499
REMARK  200  A    between atoms: _503  and  _505
REMARK  201  A    between atoms: _505  and  _506
REMARK  202  A    between atoms: _505  and  _508
REMARK  203  A    between atoms: _508  and  _509
REMARK  204  A    between atoms: _514  and  _516
REMARK  205  A    between atoms: _516  and  _517
REMARK  206  A    between atoms: _516  and  _519
REMARK  207  A    between atoms: _519  and  _520
REMARK  208  A    between atoms: _520  and  _521
REMARK  209  A    between atoms: _521  and  _522
REMARK  210  A    between atoms: _531  and  _533
REMARK  211  A    between atoms: _533  and  _534
REMARK  212  A    between atoms: _533  and  _536
REMARK  213  A    between atoms: _536  and  _537
REMARK  214  A    between atoms: _537  and  _538
REMARK  215  A    between atoms: _543  and  _545
REMARK  216  A    between atoms: _545  and  _546
REMARK  217  A    between atoms: _545  and  _548
REMARK  218  A    between atoms: _548  and  _549
REMARK  219  A    between atoms: _549  and  _550
REMARK  220  A    between atoms: _555  and  _557
REMARK  221  A    between atoms: _557  and  _558
REMARK  222  A    between atoms: _557  and  _560
REMARK  223  A    between atoms: _560  and  _561
REMARK  224  A    between atoms: _564  and  _566
REMARK  225  A    between atoms: _566  and  _567
REMARK  226  A    between atoms: _566  and  _569
REMARK  227  A    between atoms: _569  and  _570
REMARK  228  A    between atoms: _570  and  _571
REMARK  229  A    between atoms: _573  and  _575
REMARK  230  A    between atoms: _575  and  _576
REMARK  231  A    between atoms: _575  and  _578
REMARK  232  A    between atoms: _578  and  _579
REMARK  233  A    between atoms: _581  and  _583
REMARK  234  A    between atoms: _583  and  _584
REMARK  235  A    between atoms: _586  and  _588
REMARK  236  A    between atoms: _588  and  _589
REMARK  237  A    between atoms: _588  and  _591
REMARK  238  A    between atoms: _591  and  _592
REMARK  239  A    between atoms: _597  and  _598
REMARK  240  A    between atoms: _600  and  _602
REMARK  241  A    between atoms: _602  and  _603
REMARK  242  A    between atoms: _602  and  _605
REMARK  243  A    between atoms: _605  and  _606
REMARK  244  A    between atoms: _616  and  _618
REMARK  245  A    between atoms: _618  and  _619
REMARK  246  A    between atoms: _618  and  _621
REMARK  247  A    between atoms: _621  and  _622
REMARK  248  A    between atoms: _625  and  _627
REMARK  249  A    between atoms: _627  and  _628
REMARK  250  A    between atoms: _631  and  _633
REMARK  251  A    between atoms: _633  and  _634
REMARK  252  A    between atoms: _637  and  _639
REMARK  253  A    between atoms: _639  and  _640
REMARK  254  A    between atoms: _639  and  _642
REMARK  255  A    between atoms: _642  and  _643
REMARK  256  A    between atoms: _647  and  _648
REMARK                            x       y       z     vdW  Elec       q    Type
REMARK                         _______ _______ _______ _____ _____    ______ ____
ROOT
ATOM      1  O   HOH     1      33.142  58.575  29.080  0.00  0.00    +0.000 OA
ENDROOT
TORSDOF 0
REMARK  Name = ../refined-set-2016/4uac/4uac_pocket.pdb
REMARK  256 active torsions:
REMARK  status: ('A' for Active; 'I' for Inactive)
REMARK    1  A    between atoms: _1  and  _3
REMARK    2  A    between atoms: _3  and  _4
REMARK    3  A    between atoms: _7  and  _8
REMARK    4  A    between atoms: _13  and  _15
REMARK    5  A    between atoms: _15  and  _16
REMARK    6  A    between atoms: _19  and  _21
REMARK    7  A    between atoms: _21  and  _22
REMARK    8  A    between atoms: _21  and  _24
REMARK    9  A    between atoms: _24  and  _25
REMARK   10  A    between atoms: _25  and  _26
REMARK   11  A    between atoms: _29  and  _31
REMARK   12  A    between atoms: _31  and  _32
REMARK   13  A    between atoms: _31  and  _34
REMARK   14  A    between atoms: _34  and  _35
REMARK   15  A    between atoms: _38  and  _40
REMARK   16  A    between atoms: _40  and  _41
REMARK   17  A    between atoms: _40  and  _43
REMARK   18  A    between atoms: _43  and  _44
REMARK   19  A    between atoms: _46  and  _48
REMARK   20  A    between atoms: _48  and  _49
REMARK   21  A    between atoms: _48  and  _51
REMARK   22  A    between atoms: _51  and  _52
REMARK   23  A    between atoms: _54  and  _56
REMARK   24  A    between atoms: _56  and  _57
REMARK   25  A    between atoms: _56  and  _59
REMARK   26  A    between atoms: _59  and  _60
REMARK   27  A    between atoms: _60  and  _61
REMARK   28  A    between atoms: _64  and  _66
REMARK   29  A    between atoms: _66  and  _67
REMARK   30  A    between atoms: _66  and  _69
REMARK   31  A    between atoms: _69  and  _70
REMARK   32  A    between atoms: _72  and  _74
REMARK   33  A    between atoms: _74  and  _75
REMARK   34  A    between atoms: _74  and  _77
REMARK   35  A    between atoms: _77  and  _78
REMARK   36  A    between atoms: _81  and  _83
REMARK   37  A    between atoms: _83  and  _84
REMARK   38  A    between atoms: _87  and  _89
REMARK   39  A    between atoms: _89  and  _90
REMARK   40  A    between atoms: _89  and  _92
REMARK   41  A    between atoms: _92  and  _93
REMARK   42  A    between atoms: _93  and  _94
REMARK   43  A    between atoms: _94  and  _95
REMARK   44  A    between atoms: _95  and  _96
REMARK   45  A    between atoms: _100  and  _102
REMARK   46  A    between atoms: _102  and  _103
REMARK   47  A    between atoms: _102  and  _105
REMARK   48  A    between atoms: _105  and  _106
REMARK   49  A    between atoms: _109  and  _111
REMARK   50  A    between atoms: _111  and  _112
REMARK   51  A    between atoms: _111  and  _114
REMARK   52  A    between atoms: _117  and  _119
REMARK   53  A    between atoms: _119  and  _120
REMARK   54  A    between atoms: _119  and  _122
REMARK   55  A    between atoms: _122  and  _123
REMARK   56  A    between atoms: _126  and  _128
REMARK   57  A    between atoms: _128  and  _129
REMARK   58  A    between atoms: _128  and  _131
REMARK   59  A    between atoms: _131  and  _132
REMARK   60  A    between atoms: _132  and  _133
REMARK   61  A    between atoms: _135  and  _137
REMARK   62  A    between atoms: _137  and  _138
REMARK   63  A    between atoms: _137  and  _140
REMARK   64  A    between atoms: _140  and  _141
REMARK   65  A    between atoms: _147  and  _149
REMARK   66  A    between atoms: _149  and  _150
REMARK   67  A    between atoms: _153  and  _155
REMARK   68  A    between atoms: _155  and  _156
REMARK   69  A    between atoms: _155  and  _158
REMARK   70  A    between atoms: _158  and  _159
REMARK   71  A    between atoms: _164  and  _166
REMARK   72  A    between atoms: _166  and  _167
REMARK   73  A    between atoms: _166  and  _169
REMARK   74  A    between atoms: _169  and  _170
REMARK   75  A    between atoms: _173  and  _175
REMARK   76  A    between atoms: _175  and  _176
REMARK   77  A    between atoms: _175  and  _178
REMARK   78  A    between atoms: _178  and  _179
REMARK   79  A    between atoms: _179  and  _180
REMARK   80  A    between atoms: _185  and  _187
REMARK   81  A    between atoms: _187  and  _188
REMARK   82  A    between atoms: _187  and  _190
REMARK   83  A    between atoms: _190  and  _191
REMARK   84  A    between atoms: _195  and  _196
REMARK   85  A    between atoms: _201  and  _203
REMARK   86  A    between atoms: _203  and  _204
REMARK   87  A    between atoms: _203  and  _206
REMARK   88  A    between atoms: _206  and  _207
REMARK   89  A    between atoms: _212  and  _213
REMARK   90  A    between atoms: _215  and  _217
REMARK   91  A    between atoms: _217  and  _218
REMARK   92  A    between atoms: _217  and  _220
REMARK   93  A    between atoms: _220  and  _221
REMARK   94  A    between atoms: _224  and  _226
REMARK   95  A    between atoms: _226  and  _227
REMARK   96  A    between atoms: _226  and  _229
REMARK   97  A    between atoms: _229  and  _230
REMARK   98  A    between atoms: _232  and  _234
REMARK   99  A    between atoms: _234  and  _235
REMARK  100  A    between atoms: _234  and  _237
REMARK  101  A    between atoms: _237  and  _238
REMARK  102  A    between atoms: _243  and  _245
REMARK  103  A    between atoms: _245  and  _246
REMARK  104  A    between atoms: _245  and  _248
REMARK  105  A    between atoms: _248  and  _249
REMARK  106  A    between atoms: _252  and  _254
REMARK  107  A    between atoms: _254  and  _255
REMARK  108  A    between atoms: _254  and  _257
REMARK  109  A    between atoms: _257  and  _258
REMARK  110  A    between atoms: _269  and  _270
REMARK  111  A    between atoms: _275  and  _277
REMARK  112  A    between atoms: _277  and  _278
REMARK  113  A    between atoms: _277  and  _280
REMARK  114  A    between atoms: _280  and  _281
REMARK  115  A    between atoms: _284  and  _286
REMARK  116  A    between atoms: _286  and  _287
REMARK  117  A    between atoms: _286  and  _289
REMARK  118  A    between atoms: _289  and  _290
REMARK  119  A    between atoms: _295  and  _297
REMARK  120  A    between atoms: _297  and  _298
REMARK  121  A    between atoms: _300  and  _302
REMARK  122  A    between atoms: _302  and  _303
REMARK  123  A    between atoms: _302  and  _305
REMARK  124  A    between atoms: _305  and  _306
REMARK  125  A    between atoms: _316  and  _318
REMARK  126  A    between atoms: _318  and  _319
REMARK  127  A    between atoms: _318  and  _321
REMARK  128  A    between atoms: _321  and  _322
REMARK  129  A    between atoms: _327  and  _328
REMARK  130  A    between atoms: _330  and  _332
REMARK  131  A    between atoms: _332  and  _333
REMARK  132  A    between atoms: _332  and  _335
REMARK  133  A    between atoms: _335  and  _336
REMARK  134  A    between atoms: _339  and  _341
REMARK  135  A    between atoms: _341  and  _342
REMARK  136  A    between atoms: _341  and  _344
REMARK  137  A    between atoms: _344  and  _345
REMARK  138  A    between atoms: _350  and  _352
REMARK  139  A    between atoms: _352  and  _353
REMARK  140  A    between atoms: _352  and  _355
REMARK  141  A    between atoms: _355  and  _356
REMARK  142  A    between atoms: _361  and  _363
REMARK  143  A    between atoms: _363  and  _364
REMARK  144  A    between atoms: _363  and  _366
REMARK  145  A    between atoms: _366  and  _367
REMARK  146  A    between atoms: _367  and  _368
REMARK  147  A    between atoms: _371  and  _373
REMARK  148  A    between atoms: _373  and  _374
REMARK  149  A    between atoms: _376  and  _378
REMARK  150  A    between atoms: _378  and  _379
REMARK  151  A    between atoms: _378  and  _381
REMARK  152  A    between atoms: _381  and  _382
REMARK  153  A    between atoms: _384  and  _386
REMARK  154  A    between atoms: _386  and  _387
REMARK  155  A    between atoms: _386  and  _389
REMARK  156  A    between atoms: _389  and  _390
REMARK  157  A    between atoms: _395  and  _396
REMARK  158  A    between atoms: _398  and  _400
REMARK  159  A    between atoms: _400  and  _401
REMARK  160  A    between atoms: _400  and  _403
REMARK  161  A    between atoms: _403  and  _404
REMARK  162  A    between atoms: _409  and  _411
REMARK  163  A    between atoms: _411  and  _412
REMARK  164  A    between atoms: _414  and  _416
REMARK  165  A    between atoms: _416  and  _417
REMARK  166  A    between atoms: _416  and  _419
REMARK  167  A    between atoms: _419  and  _420
REMARK  168  A    between atoms: _425  and  _427
REMARK  169  A    between atoms: _427  and  _428
REMARK  170  A    between atoms: _427  and  _430
REMARK  171  A    between atoms: _430  and  _431
REMARK  172  A    between atoms: _441  and  _443
REMARK  173  A    between atoms: _443  and  _444
REMARK  174  A    between atoms: _443  and  _446
REMARK  175  A    between atoms: _446  and  _447
REMARK  176  A    between atoms: _452  and  _454
REMARK  177  A    between atoms: _454  and  _455
REMARK  178  A    between atoms: _454  and  _457
REMARK  179  A    between atoms: _457  and  _458
REMARK  180  A    between atoms: _458  and  _459
REMARK  181  A    between atoms: _459  and  _460
REMARK  182  A    between atoms: _460  and  _461
REMARK  183  A    between atoms: _465  and  _467
REMARK  184  A    between atoms: _467  and  _468
REMARK  185  A    between atoms: _467  and  _470
REMARK  186  A    between atoms: _470  and  _471
REMARK  187  A    between atoms: _477  and  _479
REMARK  188  A    between atoms: _479  and  _480
REMARK  189  A    between atoms: _482  and  _484
REMARK  190  A    between atoms: _484  and  _485
REMARK  191  A    between atoms: _484  and  _487
REMARK  192  A    between atoms: _487  and  _488
REMARK  193  A    between atoms: _490  and  _492
REMARK  194  A    between atoms: _492  and  _493
REMARK  195  A    between atoms: _492  and  _495
REMARK  196  A    between atoms: _495  and  _496
REMARK  197  A    between atoms: _496  and  _497
REMARK  198  A    between atoms: _497  and  _498
REMARK  199  A    between atoms: _498  and  _499
REMARK  200  A    between atoms: _503  and  _505
REMARK  201  A    between atoms: _505  and  _506
REMARK  202  A    between atoms: _505  and  _508
REMARK  203  A    between atoms: _508  and  _509
REMARK  204  A    between atoms: _514  and  _516
REMARK  205  A    between atoms: _516  and  _517
REMARK  206  A    between atoms: _516  and  _519
REMARK  207  A    between atoms: _519  and  _520
REMARK  208  A    between atoms: _520  and  _521
REMARK  209  A    between atoms: _521  and  _522
REMARK  210  A    between atoms: _531  and  _533
REMARK  211  A    between atoms: _533  and  _534
REMARK  212  A    between atoms: _533  and  _536
REMARK  213  A    between atoms: _536  and  _537
REMARK  214  A    between atoms: _537  and  _538
REMARK  215  A    between atoms: _543  and  _545
REMARK  216  A    between atoms: _545  and  _546
REMARK  217  A    between atoms: _545  and  _548
REMARK  218  A    between atoms: _548  and  _549
REMARK  219  A    between atoms: _549  and  _550
REMARK  220  A    between atoms: _555  and  _557
REMARK  221  A    between atoms: _557  and  _558
REMARK  222  A    between atoms: _557  and  _560
REMARK  223  A    between atoms: _560  and  _561
REMARK  224  A    between atoms: _564  and  _566
REMARK  225  A    between atoms: _566  and  _567
REMARK  226  A    between atoms: _566  and  _569
REMARK  227  A    between atoms: _569  and  _570
REMARK  228  A    between atoms: _570  and  _571
REMARK  229  A    between atoms: _573  and  _575
REMARK  230  A    between atoms: _575  and  _576
REMARK  231  A    between atoms: _575  and  _578
REMARK  232  A    between atoms: _578  and  _579
REMARK  233  A    between atoms: _581  and  _583
REMARK  234  A    between atoms: _583  and  _584
REMARK  235  A    between atoms: _586  and  _588
REMARK  236  A    between atoms: _588  and  _589
REMARK  237  A    between atoms: _588  and  _591
REMARK  238  A    between atoms: _591  and  _592
REMARK  239  A    between atoms: _597  and  _598
REMARK  240  A    between atoms: _600  and  _602
REMARK  241  A    between atoms: _602  and  _603
REMARK  242  A    between atoms: _602  and  _605
REMARK  243  A    between atoms: _605  and  _606
REMARK  244  A    between atoms: _616  and  _618
REMARK  245  A    between atoms: _618  and  _619
REMARK  246  A    between atoms: _618  and  _621
REMARK  247  A    between atoms: _621  and  _622
REMARK  248  A    between atoms: _625  and  _627
REMARK  249  A    between atoms: _627  and  _628
REMARK  250  A    between atoms: _631  and  _633
REMARK  251  A    between atoms: _633  and  _634
REMARK  252  A    between atoms: _637  and  _639
REMARK  253  A    between atoms: _639  and  _640
REMARK  254  A    between atoms: _639  and  _642
REMARK  255  A    between atoms: _642  and  _643
REMARK  256  A    between atoms: _647  and  _648
REMARK                            x       y       z     vdW  Elec       q    Type
REMARK                         _______ _______ _______ _____ _____    ______ ____
ROOT
ATOM      1  O   HOH     1      32.881  55.821  29.456  0.00  0.00    +0.000 OA
ENDROOT
TORSDOF 0
REMARK  Name = ../refined-set-2016/4uac/4uac_pocket.pdb
REMARK  256 active torsions:
REMARK  status: ('A' for Active; 'I' for Inactive)
REMARK    1  A    between atoms: _1  and  _3
REMARK    2  A    between atoms: _3  and  _4
REMARK    3  A    between atoms: _7  and  _8
REMARK    4  A    between atoms: _13  and  _15
REMARK    5  A    between atoms: _15  and  _16
REMARK    6  A    between atoms: _19  and  _21
REMARK    7  A    between atoms: _21  and  _22
REMARK    8  A    between atoms: _21  and  _24
REMARK    9  A    between atoms: _24  and  _25
REMARK   10  A    between atoms: _25  and  _26
REMARK   11  A    between atoms: _29  and  _31
REMARK   12  A    between atoms: _31  and  _32
REMARK   13  A    between atoms: _31  and  _34
REMARK   14  A    between atoms: _34  and  _35
REMARK   15  A    between atoms: _38  and  _40
REMARK   16  A    between atoms: _40  and  _41
REMARK   17  A    between atoms: _40  and  _43
REMARK   18  A    between atoms: _43  and  _44
REMARK   19  A    between atoms: _46  and  _48
REMARK   20  A    between atoms: _48  and  _49
REMARK   21  A    between atoms: _48  and  _51
REMARK   22  A    between atoms: _51  and  _52
REMARK   23  A    between atoms: _54  and  _56
REMARK   24  A    between atoms: _56  and  _57
REMARK   25  A    between atoms: _56  and  _59
REMARK   26  A    between atoms: _59  and  _60
REMARK   27  A    between atoms: _60  and  _61
REMARK   28  A    between atoms: _64  and  _66
REMARK   29  A    between atoms: _66  and  _67
REMARK   30  A    between atoms: _66  and  _69
REMARK   31  A    between atoms: _69  and  _70
REMARK   32  A    between atoms: _72  and  _74
REMARK   33  A    between atoms: _74  and  _75
REMARK   34  A    between atoms: _74  and  _77
REMARK   35  A    between atoms: _77  and  _78
REMARK   36  A    between atoms: _81  and  _83
REMARK   37  A    between atoms: _83  and  _84
REMARK   38  A    between atoms: _87  and  _89
REMARK   39  A    between atoms: _89  and  _90
REMARK   40  A    between atoms: _89  and  _92
REMARK   41  A    between atoms: _92  and  _93
REMARK   42  A    between atoms: _93  and  _94
REMARK   43  A    between atoms: _94  and  _95
REMARK   44  A    between atoms: _95  and  _96
REMARK   45  A    between atoms: _100  and  _102
REMARK   46  A    between atoms: _102  and  _103
REMARK   47  A    between atoms: _102  and  _105
REMARK   48  A    between atoms: _105  and  _106
REMARK   49  A    between atoms: _109  and  _111
REMARK   50  A    between atoms: _111  and  _112
REMARK   51  A    between atoms: _111  and  _114
REMARK   52  A    between atoms: _117  and  _119
REMARK   53  A    between atoms: _119  and  _120
REMARK   54  A    between atoms: _119  and  _122
REMARK   55  A    between atoms: _122  and  _123
REMARK   56  A    between atoms: _126  and  _128
REMARK   57  A    between atoms: _128  and  _129
REMARK   58  A    between atoms: _128  and  _131
REMARK   59  A    between atoms: _131  and  _132
REMARK   60  A    between atoms: _132  and  _133
REMARK   61  A    between atoms: _135  and  _137
REMARK   62  A    between atoms: _137  and  _138
REMARK   63  A    between atoms: _137  and  _140
REMARK   64  A    between atoms: _140  and  _141
REMARK   65  A    between atoms: _147  and  _149
REMARK   66  A    between atoms: _149  and  _150
REMARK   67  A    between atoms: _153  and  _155
REMARK   68  A    between atoms: _155  and  _156
REMARK   69  A    between atoms: _155  and  _158
REMARK   70  A    between atoms: _158  and  _159
REMARK   71  A    between atoms: _164  and  _166
REMARK   72  A    between atoms: _166  and  _167
REMARK   73  A    between atoms: _166  and  _169
REMARK   74  A    between atoms: _169  and  _170
REMARK   75  A    between atoms: _173  and  _175
REMARK   76  A    between atoms: _175  and  _176
REMARK   77  A    between atoms: _175  and  _178
REMARK   78  A    between atoms: _178  and  _179
REMARK   79  A    between atoms: _179  and  _180
REMARK   80  A    between atoms: _185  and  _187
REMARK   81  A    between atoms: _187  and  _188
REMARK   82  A    between atoms: _187  and  _190
REMARK   83  A    between atoms: _190  and  _191
REMARK   84  A    between atoms: _195  and  _196
REMARK   85  A    between atoms: _201  and  _203
REMARK   86  A    between atoms: _203  and  _204
REMARK   87  A    between atoms: _203  and  _206
REMARK   88  A    between atoms: _206  and  _207
REMARK   89  A    between atoms: _212  and  _213
REMARK   90  A    between atoms: _215  and  _217
REMARK   91  A    between atoms: _217  and  _218
REMARK   92  A    between atoms: _217  and  _220
REMARK   93  A    between atoms: _220  and  _221
REMARK   94  A    between atoms: _224  and  _226
REMARK   95  A    between atoms: _226  and  _227
REMARK   96  A    between atoms: _226  and  _229
REMARK   97  A    between atoms: _229  and  _230
REMARK   98  A    between atoms: _232  and  _234
REMARK   99  A    between atoms: _234  and  _235
REMARK  100  A    between atoms: _234  and  _237
REMARK  101  A    between atoms: _237  and  _238
REMARK  102  A    between atoms: _243  and  _245
REMARK  103  A    between atoms: _245  and  _246
REMARK  104  A    between atoms: _245  and  _248
REMARK  105  A    between atoms: _248  and  _249
REMARK  106  A    between atoms: _252  and  _254
REMARK  107  A    between atoms: _254  and  _255
REMARK  108  A    between atoms: _254  and  _257
REMARK  109  A    between atoms: _257  and  _258
REMARK  110  A    between atoms: _269  and  _270
REMARK  111  A    between atoms: _275  and  _277
REMARK  112  A    between atoms: _277  and  _278
REMARK  113  A    between atoms: _277  and  _280
REMARK  114  A    between atoms: _280  and  _281
REMARK  115  A    between atoms: _284  and  _286
REMARK  116  A    between atoms: _286  and  _287
REMARK  117  A    between atoms: _286  and  _289
REMARK  118  A    between atoms: _289  and  _290
REMARK  119  A    between atoms: _295  and  _297
REMARK  120  A    between atoms: _297  and  _298
REMARK  121  A    between atoms: _300  and  _302
REMARK  122  A    between atoms: _302  and  _303
REMARK  123  A    between atoms: _302  and  _305
REMARK  124  A    between atoms: _305  and  _306
REMARK  125  A    between atoms: _316  and  _318
REMARK  126  A    between atoms: _318  and  _319
REMARK  127  A    between atoms: _318  and  _321
REMARK  128  A    between atoms: _321  and  _322
REMARK  129  A    between atoms: _327  and  _328
REMARK  130  A    between atoms: _330  and  _332
REMARK  131  A    between atoms: _332  and  _333
REMARK  132  A    between atoms: _332  and  _335
REMARK  133  A    between atoms: _335  and  _336
REMARK  134  A    between atoms: _339  and  _341
REMARK  135  A    between atoms: _341  and  _342
REMARK  136  A    between atoms: _341  and  _344
REMARK  137  A    between atoms: _344  and  _345
REMARK  138  A    between atoms: _350  and  _352
REMARK  139  A    between atoms: _352  and  _353
REMARK  140  A    between atoms: _352  and  _355
REMARK  141  A    between atoms: _355  and  _356
REMARK  142  A    between atoms: _361  and  _363
REMARK  143  A    between atoms: _363  and  _364
REMARK  144  A    between atoms: _363  and  _366
REMARK  145  A    between atoms: _366  and  _367
REMARK  146  A    between atoms: _367  and  _368
REMARK  147  A    between atoms: _371  and  _373
REMARK  148  A    between atoms: _373  and  _374
REMARK  149  A    between atoms: _376  and  _378
REMARK  150  A    between atoms: _378  and  _379
REMARK  151  A    between atoms: _378  and  _381
REMARK  152  A    between atoms: _381  and  _382
REMARK  153  A    between atoms: _384  and  _386
REMARK  154  A    between atoms: _386  and  _387
REMARK  155  A    between atoms: _386  and  _389
REMARK  156  A    between atoms: _389  and  _390
REMARK  157  A    between atoms: _395  and  _396
REMARK  158  A    between atoms: _398  and  _400
REMARK  159  A    between atoms: _400  and  _401
REMARK  160  A    between atoms: _400  and  _403
REMARK  161  A    between atoms: _403  and  _404
REMARK  162  A    between atoms: _409  and  _411
REMARK  163  A    between atoms: _411  and  _412
REMARK  164  A    between atoms: _414  and  _416
REMARK  165  A    between atoms: _416  and  _417
REMARK  166  A    between atoms: _416  and  _419
REMARK  167  A    between atoms: _419  and  _420
REMARK  168  A    between atoms: _425  and  _427
REMARK  169  A    between atoms: _427  and  _428
REMARK  170  A    between atoms: _427  and  _430
REMARK  171  A    between atoms: _430  and  _431
REMARK  172  A    between atoms: _441  and  _443
REMARK  173  A    between atoms: _443  and  _444
REMARK  174  A    between atoms: _443  and  _446
REMARK  175  A    between atoms: _446  and  _447
REMARK  176  A    between atoms: _452  and  _454
REMARK  177  A    between atoms: _454  and  _455
REMARK  178  A    between atoms: _454  and  _457
REMARK  179  A    between atoms: _457  and  _458
REMARK  180  A    between atoms: _458  and  _459
REMARK  181  A    between atoms: _459  and  _460
REMARK  182  A    between atoms: _460  and  _461
REMARK  183  A    between atoms: _465  and  _467
REMARK  184  A    between atoms: _467  and  _468
REMARK  185  A    between atoms: _467  and  _470
REMARK  186  A    between atoms: _470  and  _471
REMARK  187  A    between atoms: _477  and  _479
REMARK  188  A    between atoms: _479  and  _480
REMARK  189  A    between atoms: _482  and  _484
REMARK  190  A    between atoms: _484  and  _485
REMARK  191  A    between atoms: _484  and  _487
REMARK  192  A    between atoms: _487  and  _488
REMARK  193  A    between atoms: _490  and  _492
REMARK  194  A    between atoms: _492  and  _493
REMARK  195  A    between atoms: _492  and  _495
REMARK  196  A    between atoms: _495  and  _496
REMARK  197  A    between atoms: _496  and  _497
REMARK  198  A    between atoms: _497  and  _498
REMARK  199  A    between atoms: _498  and  _499
REMARK  200  A    between atoms: _503  and  _505
REMARK  201  A    between atoms: _505  and  _506
REMARK  202  A    between atoms: _505  and  _508
REMARK  203  A    between atoms: _508  and  _509
REMARK  204  A    between atoms: _514  and  _516
REMARK  205  A    between atoms: _516  and  _517
REMARK  206  A    between atoms: _516  and  _519
REMARK  207  A    between atoms: _519  and  _520
REMARK  208  A    between atoms: _520  and  _521
REMARK  209  A    between atoms: _521  and  _522
REMARK  210  A    between atoms: _531  and  _533
REMARK  211  A    between atoms: _533  and  _534
REMARK  212  A    between atoms: _533  and  _536
REMARK  213  A    between atoms: _536  and  _537
REMARK  214  A    between atoms: _537  and  _538
REMARK  215  A    between atoms: _543  and  _545
REMARK  216  A    between atoms: _545  and  _546
REMARK  217  A    between atoms: _545  and  _548
REMARK  218  A    between atoms: _548  and  _549
REMARK  219  A    between atoms: _549  and  _550
REMARK  220  A    between atoms: _555  and  _557
REMARK  221  A    between atoms: _557  and  _558
REMARK  222  A    between atoms: _557  and  _560
REMARK  223  A    between atoms: _560  and  _561
REMARK  224  A    between atoms: _564  and  _566
REMARK  225  A    between atoms: _566  and  _567
REMARK  226  A    between atoms: _566  and  _569
REMARK  227  A    between atoms: _569  and  _570
REMARK  228  A    between atoms: _570  and  _571
REMARK  229  A    between atoms: _573  and  _575
REMARK  230  A    between atoms: _575  and  _576
REMARK  231  A    between atoms: _575  and  _578
REMARK  232  A    between atoms: _578  and  _579
REMARK  233  A    between atoms: _581  and  _583
REMARK  234  A    between atoms: _583  and  _584
REMARK  235  A    between atoms: _586  and  _588
REMARK  236  A    between atoms: _588  and  _589
REMARK  237  A    between atoms: _588  and  _591
REMARK  238  A    between atoms: _591  and  _592
REMARK  239  A    between atoms: _597  and  _598
REMARK  240  A    between atoms: _600  and  _602
REMARK  241  A    between atoms: _602  and  _603
REMARK  242  A    between atoms: _602  and  _605
REMARK  243  A    between atoms: _605  and  _606
REMARK  244  A    between atoms: _616  and  _618
REMARK  245  A    between atoms: _618  and  _619
REMARK  246  A    between atoms: _618  and  _621
REMARK  247  A    between atoms: _621  and  _622
REMARK  248  A    between atoms: _625  and  _627
REMARK  249  A    between atoms: _627  and  _628
REMARK  250  A    between atoms: _631  and  _633
REMARK  251  A    between atoms: _633  and  _634
REMARK  252  A    between atoms: _637  and  _639
REMARK  253  A    between atoms: _639  and  _640
REMARK  254  A    between atoms: _639  and  _642
REMARK  255  A    between atoms: _642  and  _643
REMARK  256  A    between atoms: _647  and  _648
REMARK                            x       y       z     vdW  Elec       q    Type
REMARK                         _______ _______ _______ _____ _____    ______ ____
ROOT
ATOM      1  O   HOH     1      37.310  57.220  25.335  0.00  0.00    +0.000 OA
ENDROOT
TORSDOF 0
REMARK  Name = ../refined-set-2016/4uac/4uac_pocket.pdb
REMARK  256 active torsions:
REMARK  status: ('A' for Active; 'I' for Inactive)
REMARK    1  A    between atoms: _1  and  _3
REMARK    2  A    between atoms: _3  and  _4
REMARK    3  A    between atoms: _7  and  _8
REMARK    4  A    between atoms: _13  and  _15
REMARK    5  A    between atoms: _15  and  _16
REMARK    6  A    between atoms: _19  and  _21
REMARK    7  A    between atoms: _21  and  _22
REMARK    8  A    between atoms: _21  and  _24
REMARK    9  A    between atoms: _24  and  _25
REMARK   10  A    between atoms: _25  and  _26
REMARK   11  A    between atoms: _29  and  _31
REMARK   12  A    between atoms: _31  and  _32
REMARK   13  A    between atoms: _31  and  _34
REMARK   14  A    between atoms: _34  and  _35
REMARK   15  A    between atoms: _38  and  _40
REMARK   16  A    between atoms: _40  and  _41
REMARK   17  A    between atoms: _40  and  _43
REMARK   18  A    between atoms: _43  and  _44
REMARK   19  A    between atoms: _46  and  _48
REMARK   20  A    between atoms: _48  and  _49
REMARK   21  A    between atoms: _48  and  _51
REMARK   22  A    between atoms: _51  and  _52
REMARK   23  A    between atoms: _54  and  _56
REMARK   24  A    between atoms: _56  and  _57
REMARK   25  A    between atoms: _56  and  _59
REMARK   26  A    between atoms: _59  and  _60
REMARK   27  A    between atoms: _60  and  _61
REMARK   28  A    between atoms: _64  and  _66
REMARK   29  A    between atoms: _66  and  _67
REMARK   30  A    between atoms: _66  and  _69
REMARK   31  A    between atoms: _69  and  _70
REMARK   32  A    between atoms: _72  and  _74
REMARK   33  A    between atoms: _74  and  _75
REMARK   34  A    between atoms: _74  and  _77
REMARK   35  A    between atoms: _77  and  _78
REMARK   36  A    between atoms: _81  and  _83
REMARK   37  A    between atoms: _83  and  _84
REMARK   38  A    between atoms: _87  and  _89
REMARK   39  A    between atoms: _89  and  _90
REMARK   40  A    between atoms: _89  and  _92
REMARK   41  A    between atoms: _92  and  _93
REMARK   42  A    between atoms: _93  and  _94
REMARK   43  A    between atoms: _94  and  _95
REMARK   44  A    between atoms: _95  and  _96
REMARK   45  A    between atoms: _100  and  _102
REMARK   46  A    between atoms: _102  and  _103
REMARK   47  A    between atoms: _102  and  _105
REMARK   48  A    between atoms: _105  and  _106
REMARK   49  A    between atoms: _109  and  _111
REMARK   50  A    between atoms: _111  and  _112
REMARK   51  A    between atoms: _111  and  _114
REMARK   52  A    between atoms: _117  and  _119
REMARK   53  A    between atoms: _119  and  _120
REMARK   54  A    between atoms: _119  and  _122
REMARK   55  A    between atoms: _122  and  _123
REMARK   56  A    between atoms: _126  and  _128
REMARK   57  A    between atoms: _128  and  _129
REMARK   58  A    between atoms: _128  and  _131
REMARK   59  A    between atoms: _131  and  _132
REMARK   60  A    between atoms: _132  and  _133
REMARK   61  A    between atoms: _135  and  _137
REMARK   62  A    between atoms: _137  and  _138
REMARK   63  A    between atoms: _137  and  _140
REMARK   64  A    between atoms: _140  and  _141
REMARK   65  A    between atoms: _147  and  _149
REMARK   66  A    between atoms: _149  and  _150
REMARK   67  A    between atoms: _153  and  _155
REMARK   68  A    between atoms: _155  and  _156
REMARK   69  A    between atoms: _155  and  _158
REMARK   70  A    between atoms: _158  and  _159
REMARK   71  A    between atoms: _164  and  _166
REMARK   72  A    between atoms: _166  and  _167
REMARK   73  A    between atoms: _166  and  _169
REMARK   74  A    between atoms: _169  and  _170
REMARK   75  A    between atoms: _173  and  _175
REMARK   76  A    between atoms: _175  and  _176
REMARK   77  A    between atoms: _175  and  _178
REMARK   78  A    between atoms: _178  and  _179
REMARK   79  A    between atoms: _179  and  _180
REMARK   80  A    between atoms: _185  and  _187
REMARK   81  A    between atoms: _187  and  _188
REMARK   82  A    between atoms: _187  and  _190
REMARK   83  A    between atoms: _190  and  _191
REMARK   84  A    between atoms: _195  and  _196
REMARK   85  A    between atoms: _201  and  _203
REMARK   86  A    between atoms: _203  and  _204
REMARK   87  A    between atoms: _203  and  _206
REMARK   88  A    between atoms: _206  and  _207
REMARK   89  A    between atoms: _212  and  _213
REMARK   90  A    between atoms: _215  and  _217
REMARK   91  A    between atoms: _217  and  _218
REMARK   92  A    between atoms: _217  and  _220
REMARK   93  A    between atoms: _220  and  _221
REMARK   94  A    between atoms: _224  and  _226
REMARK   95  A    between atoms: _226  and  _227
REMARK   96  A    between atoms: _226  and  _229
REMARK   97  A    between atoms: _229  and  _230
REMARK   98  A    between atoms: _232  and  _234
REMARK   99  A    between atoms: _234  and  _235
REMARK  100  A    between atoms: _234  and  _237
REMARK  101  A    between atoms: _237  and  _238
REMARK  102  A    between atoms: _243  and  _245
REMARK  103  A    between atoms: _245  and  _246
REMARK  104  A    between atoms: _245  and  _248
REMARK  105  A    between atoms: _248  and  _249
REMARK  106  A    between atoms: _252  and  _254
REMARK  107  A    between atoms: _254  and  _255
REMARK  108  A    between atoms: _254  and  _257
REMARK  109  A    between atoms: _257  and  _258
REMARK  110  A    between atoms: _269  and  _270
REMARK  111  A    between atoms: _275  and  _277
REMARK  112  A    between atoms: _277  and  _278
REMARK  113  A    between atoms: _277  and  _280
REMARK  114  A    between atoms: _280  and  _281
REMARK  115  A    between atoms: _284  and  _286
REMARK  116  A    between atoms: _286  and  _287
REMARK  117  A    between atoms: _286  and  _289
REMARK  118  A    between atoms: _289  and  _290
REMARK  119  A    between atoms: _295  and  _297
REMARK  120  A    between atoms: _297  and  _298
REMARK  121  A    between atoms: _300  and  _302
REMARK  122  A    between atoms: _302  and  _303
REMARK  123  A    between atoms: _302  and  _305
REMARK  124  A    between atoms: _305  and  _306
REMARK  125  A    between atoms: _316  and  _318
REMARK  126  A    between atoms: _318  and  _319
REMARK  127  A    between atoms: _318  and  _321
REMARK  128  A    between atoms: _321  and  _322
REMARK  129  A    between atoms: _327  and  _328
REMARK  130  A    between atoms: _330  and  _332
REMARK  131  A    between atoms: _332  and  _333
REMARK  132  A    between atoms: _332  and  _335
REMARK  133  A    between atoms: _335  and  _336
REMARK  134  A    between atoms: _339  and  _341
REMARK  135  A    between atoms: _341  and  _342
REMARK  136  A    between atoms: _341  and  _344
REMARK  137  A    between atoms: _344  and  _345
REMARK  138  A    between atoms: _350  and  _352
REMARK  139  A    between atoms: _352  and  _353
REMARK  140  A    between atoms: _352  and  _355
REMARK  141  A    between atoms: _355  and  _356
REMARK  142  A    between atoms: _361  and  _363
REMARK  143  A    between atoms: _363  and  _364
REMARK  144  A    between atoms: _363  and  _366
REMARK  145  A    between atoms: _366  and  _367
REMARK  146  A    between atoms: _367  and  _368
REMARK  147  A    between atoms: _371  and  _373
REMARK  148  A    between atoms: _373  and  _374
REMARK  149  A    between atoms: _376  and  _378
REMARK  150  A    between atoms: _378  and  _379
REMARK  151  A    between atoms: _378  and  _381
REMARK  152  A    between atoms: _381  and  _382
REMARK  153  A    between atoms: _384  and  _386
REMARK  154  A    between atoms: _386  and  _387
REMARK  155  A    between atoms: _386  and  _389
REMARK  156  A    between atoms: _389  and  _390
REMARK  157  A    between atoms: _395  and  _396
REMARK  158  A    between atoms: _398  and  _400
REMARK  159  A    between atoms: _400  and  _401
REMARK  160  A    between atoms: _400  and  _403
REMARK  161  A    between atoms: _403  and  _404
REMARK  162  A    between atoms: _409  and  _411
REMARK  163  A    between atoms: _411  and  _412
REMARK  164  A    between atoms: _414  and  _416
REMARK  165  A    between atoms: _416  and  _417
REMARK  166  A    between atoms: _416  and  _419
REMARK  167  A    between atoms: _419  and  _420
REMARK  168  A    between atoms: _425  and  _427
REMARK  169  A    between atoms: _427  and  _428
REMARK  170  A    between atoms: _427  and  _430
REMARK  171  A    between atoms: _430  and  _431
REMARK  172  A    between atoms: _441  and  _443
REMARK  173  A    between atoms: _443  and  _444
REMARK  174  A    between atoms: _443  and  _446
REMARK  175  A    between atoms: _446  and  _447
REMARK  176  A    between atoms: _452  and  _454
REMARK  177  A    between atoms: _454  and  _455
REMARK  178  A    between atoms: _454  and  _457
REMARK  179  A    between atoms: _457  and  _458
REMARK  180  A    between atoms: _458  and  _459
REMARK  181  A    between atoms: _459  and  _460
REMARK  182  A    between atoms: _460  and  _461
REMARK  183  A    between atoms: _465  and  _467
REMARK  184  A    between atoms: _467  and  _468
REMARK  185  A    between atoms: _467  and  _470
REMARK  186  A    between atoms: _470  and  _471
REMARK  187  A    between atoms: _477  and  _479
REMARK  188  A    between atoms: _479  and  _480
REMARK  189  A    between atoms: _482  and  _484
REMARK  190  A    between atoms: _484  and  _485
REMARK  191  A    between atoms: _484  and  _487
REMARK  192  A    between atoms: _487  and  _488
REMARK  193  A    between atoms: _490  and  _492
REMARK  194  A    between atoms: _492  and  _493
REMARK  195  A    between atoms: _492  and  _495
REMARK  196  A    between atoms: _495  and  _496
REMARK  197  A    between atoms: _496  and  _497
REMARK  198  A    between atoms: _497  and  _498
REMARK  199  A    between atoms: _498  and  _499
REMARK  200  A    between atoms: _503  and  _505
REMARK  201  A    between atoms: _505  and  _506
REMARK  202  A    between atoms: _505  and  _508
REMARK  203  A    between atoms: _508  and  _509
REMARK  204  A    between atoms: _514  and  _516
REMARK  205  A    between atoms: _516  and  _517
REMARK  206  A    between atoms: _516  and  _519
REMARK  207  A    between atoms: _519  and  _520
REMARK  208  A    between atoms: _520  and  _521
REMARK  209  A    between atoms: _521  and  _522
REMARK  210  A    between atoms: _531  and  _533
REMARK  211  A    between atoms: _533  and  _534
REMARK  212  A    between atoms: _533  and  _536
REMARK  213  A    between atoms: _536  and  _537
REMARK  214  A    between atoms: _537  and  _538
REMARK  215  A    between atoms: _543  and  _545
REMARK  216  A    between atoms: _545  and  _546
REMARK  217  A    between atoms: _545  and  _548
REMARK  218  A    between atoms: _548  and  _549
REMARK  219  A    between atoms: _549  and  _550
REMARK  220  A    between atoms: _555  and  _557
REMARK  221  A    between atoms: _557  and  _558
REMARK  222  A    between atoms: _557  and  _560
REMARK  223  A    between atoms: _560  and  _561
REMARK  224  A    between atoms: _564  and  _566
REMARK  225  A    between atoms: _566  and  _567
REMARK  226  A    between atoms: _566  and  _569
REMARK  227  A    between atoms: _569  and  _570
REMARK  228  A    between atoms: _570  and  _571
REMARK  229  A    between atoms: _573  and  _575
REMARK  230  A    between atoms: _575  and  _576
REMARK  231  A    between atoms: _575  and  _578
REMARK  232  A    between atoms: _578  and  _579
REMARK  233  A    between atoms: _581  and  _583
REMARK  234  A    between atoms: _583  and  _584
REMARK  235  A    between atoms: _586  and  _588
REMARK  236  A    between atoms: _588  and  _589
REMARK  237  A    between atoms: _588  and  _591
REMARK  238  A    between atoms: _591  and  _592
REMARK  239  A    between atoms: _597  and  _598
REMARK  240  A    between atoms: _600  and  _602
REMARK  241  A    between atoms: _602  and  _603
REMARK  242  A    between atoms: _602  and  _605
REMARK  243  A    between atoms: _605  and  _606
REMARK  244  A    between atoms: _616  and  _618
REMARK  245  A    between atoms: _618  and  _619
REMARK  246  A    between atoms: _618  and  _621
REMARK  247  A    between atoms: _621  and  _622
REMARK  248  A    between atoms: _625  and  _627
REMARK  249  A    between atoms: _627  and  _628
REMARK  250  A    between atoms: _631  and  _633
REMARK  251  A    between atoms: _633  and  _634
REMARK  252  A    between atoms: _637  and  _639
REMARK  253  A    between atoms: _639  and  _640
REMARK  254  A    between atoms: _639  and  _642
REMARK  255  A    between atoms: _642  and  _643
REMARK  256  A    between atoms: _647  and  _648
REMARK                            x       y       z     vdW  Elec       q    Type
REMARK                         _______ _______ _______ _____ _____    ______ ____
ROOT
ATOM      1  O   HOH     1      29.044  56.965  31.003  0.00  0.00    +0.000 OA
ENDROOT
TORSDOF 0
REMARK  Name = ../refined-set-2016/4uac/4uac_pocket.pdb
REMARK  256 active torsions:
REMARK  status: ('A' for Active; 'I' for Inactive)
REMARK    1  A    between atoms: _1  and  _3
REMARK    2  A    between atoms: _3  and  _4
REMARK    3  A    between atoms: _7  and  _8
REMARK    4  A    between atoms: _13  and  _15
REMARK    5  A    between atoms: _15  and  _16
REMARK    6  A    between atoms: _19  and  _21
REMARK    7  A    between atoms: _21  and  _22
REMARK    8  A    between atoms: _21  and  _24
REMARK    9  A    between atoms: _24  and  _25
REMARK   10  A    between atoms: _25  and  _26
REMARK   11  A    between atoms: _29  and  _31
REMARK   12  A    between atoms: _31  and  _32
REMARK   13  A    between atoms: _31  and  _34
REMARK   14  A    between atoms: _34  and  _35
REMARK   15  A    between atoms: _38  and  _40
REMARK   16  A    between atoms: _40  and  _41
REMARK   17  A    between atoms: _40  and  _43
REMARK   18  A    between atoms: _43  and  _44
REMARK   19  A    between atoms: _46  and  _48
REMARK   20  A    between atoms: _48  and  _49
REMARK   21  A    between atoms: _48  and  _51
REMARK   22  A    between atoms: _51  and  _52
REMARK   23  A    between atoms: _54  and  _56
REMARK   24  A    between atoms: _56  and  _57
REMARK   25  A    between atoms: _56  and  _59
REMARK   26  A    between atoms: _59  and  _60
REMARK   27  A    between atoms: _60  and  _61
REMARK   28  A    between atoms: _64  and  _66
REMARK   29  A    between atoms: _66  and  _67
REMARK   30  A    between atoms: _66  and  _69
REMARK   31  A    between atoms: _69  and  _70
REMARK   32  A    between atoms: _72  and  _74
REMARK   33  A    between atoms: _74  and  _75
REMARK   34  A    between atoms: _74  and  _77
REMARK   35  A    between atoms: _77  and  _78
REMARK   36  A    between atoms: _81  and  _83
REMARK   37  A    between atoms: _83  and  _84
REMARK   38  A    between atoms: _87  and  _89
REMARK   39  A    between atoms: _89  and  _90
REMARK   40  A    between atoms: _89  and  _92
REMARK   41  A    between atoms: _92  and  _93
REMARK   42  A    between atoms: _93  and  _94
REMARK   43  A    between atoms: _94  and  _95
REMARK   44  A    between atoms: _95  and  _96
REMARK   45  A    between atoms: _100  and  _102
REMARK   46  A    between atoms: _102  and  _103
REMARK   47  A    between atoms: _102  and  _105
REMARK   48  A    between atoms: _105  and  _106
REMARK   49  A    between atoms: _109  and  _111
REMARK   50  A    between atoms: _111  and  _112
REMARK   51  A    between atoms: _111  and  _114
REMARK   52  A    between atoms: _117  and  _119
REMARK   53  A    between atoms: _119  and  _120
REMARK   54  A    between atoms: _119  and  _122
REMARK   55  A    between atoms: _122  and  _123
REMARK   56  A    between atoms: _126  and  _128
REMARK   57  A    between atoms: _128  and  _129
REMARK   58  A    between atoms: _128  and  _131
REMARK   59  A    between atoms: _131  and  _132
REMARK   60  A    between atoms: _132  and  _133
REMARK   61  A    between atoms: _135  and  _137
REMARK   62  A    between atoms: _137  and  _138
REMARK   63  A    between atoms: _137  and  _140
REMARK   64  A    between atoms: _140  and  _141
REMARK   65  A    between atoms: _147  and  _149
REMARK   66  A    between atoms: _149  and  _150
REMARK   67  A    between atoms: _153  and  _155
REMARK   68  A    between atoms: _155  and  _156
REMARK   69  A    between atoms: _155  and  _158
REMARK   70  A    between atoms: _158  and  _159
REMARK   71  A    between atoms: _164  and  _166
REMARK   72  A    between atoms: _166  and  _167
REMARK   73  A    between atoms: _166  and  _169
REMARK   74  A    between atoms: _169  and  _170
REMARK   75  A    between atoms: _173  and  _175
REMARK   76  A    between atoms: _175  and  _176
REMARK   77  A    between atoms: _175  and  _178
REMARK   78  A    between atoms: _178  and  _179
REMARK   79  A    between atoms: _179  and  _180
REMARK   80  A    between atoms: _185  and  _187
REMARK   81  A    between atoms: _187  and  _188
REMARK   82  A    between atoms: _187  and  _190
REMARK   83  A    between atoms: _190  and  _191
REMARK   84  A    between atoms: _195  and  _196
REMARK   85  A    between atoms: _201  and  _203
REMARK   86  A    between atoms: _203  and  _204
REMARK   87  A    between atoms: _203  and  _206
REMARK   88  A    between atoms: _206  and  _207
REMARK   89  A    between atoms: _212  and  _213
REMARK   90  A    between atoms: _215  and  _217
REMARK   91  A    between atoms: _217  and  _218
REMARK   92  A    between atoms: _217  and  _220
REMARK   93  A    between atoms: _220  and  _221
REMARK   94  A    between atoms: _224  and  _226
REMARK   95  A    between atoms: _226  and  _227
REMARK   96  A    between atoms: _226  and  _229
REMARK   97  A    between atoms: _229  and  _230
REMARK   98  A    between atoms: _232  and  _234
REMARK   99  A    between atoms: _234  and  _235
REMARK  100  A    between atoms: _234  and  _237
REMARK  101  A    between atoms: _237  and  _238
REMARK  102  A    between atoms: _243  and  _245
REMARK  103  A    between atoms: _245  and  _246
REMARK  104  A    between atoms: _245  and  _248
REMARK  105  A    between atoms: _248  and  _249
REMARK  106  A    between atoms: _252  and  _254
REMARK  107  A    between atoms: _254  and  _255
REMARK  108  A    between atoms: _254  and  _257
REMARK  109  A    between atoms: _257  and  _258
REMARK  110  A    between atoms: _269  and  _270
REMARK  111  A    between atoms: _275  and  _277
REMARK  112  A    between atoms: _277  and  _278
REMARK  113  A    between atoms: _277  and  _280
REMARK  114  A    between atoms: _280  and  _281
REMARK  115  A    between atoms: _284  and  _286
REMARK  116  A    between atoms: _286  and  _287
REMARK  117  A    between atoms: _286  and  _289
REMARK  118  A    between atoms: _289  and  _290
REMARK  119  A    between atoms: _295  and  _297
REMARK  120  A    between atoms: _297  and  _298
REMARK  121  A    between atoms: _300  and  _302
REMARK  122  A    between atoms: _302  and  _303
REMARK  123  A    between atoms: _302  and  _305
REMARK  124  A    between atoms: _305  and  _306
REMARK  125  A    between atoms: _316  and  _318
REMARK  126  A    between atoms: _318  and  _319
REMARK  127  A    between atoms: _318  and  _321
REMARK  128  A    between atoms: _321  and  _322
REMARK  129  A    between atoms: _327  and  _328
REMARK  130  A    between atoms: _330  and  _332
REMARK  131  A    between atoms: _332  and  _333
REMARK  132  A    between atoms: _332  and  _335
REMARK  133  A    between atoms: _335  and  _336
REMARK  134  A    between atoms: _339  and  _341
REMARK  135  A    between atoms: _341  and  _342
REMARK  136  A    between atoms: _341  and  _344
REMARK  137  A    between atoms: _344  and  _345
REMARK  138  A    between atoms: _350  and  _352
REMARK  139  A    between atoms: _352  and  _353
REMARK  140  A    between atoms: _352  and  _355
REMARK  141  A    between atoms: _355  and  _356
REMARK  142  A    between atoms: _361  and  _363
REMARK  143  A    between atoms: _363  and  _364
REMARK  144  A    between atoms: _363  and  _366
REMARK  145  A    between atoms: _366  and  _367
REMARK  146  A    between atoms: _367  and  _368
REMARK  147  A    between atoms: _371  and  _373
REMARK  148  A    between atoms: _373  and  _374
REMARK  149  A    between atoms: _376  and  _378
REMARK  150  A    between atoms: _378  and  _379
REMARK  151  A    between atoms: _378  and  _381
REMARK  152  A    between atoms: _381  and  _382
REMARK  153  A    between atoms: _384  and  _386
REMARK  154  A    between atoms: _386  and  _387
REMARK  155  A    between atoms: _386  and  _389
REMARK  156  A    between atoms: _389  and  _390
REMARK  157  A    between atoms: _395  and  _396
REMARK  158  A    between atoms: _398  and  _400
REMARK  159  A    between atoms: _400  and  _401
REMARK  160  A    between atoms: _400  and  _403
REMARK  161  A    between atoms: _403  and  _404
REMARK  162  A    between atoms: _409  and  _411
REMARK  163  A    between atoms: _411  and  _412
REMARK  164  A    between atoms: _414  and  _416
REMARK  165  A    between atoms: _416  and  _417
REMARK  166  A    between atoms: _416  and  _419
REMARK  167  A    between atoms: _419  and  _420
REMARK  168  A    between atoms: _425  and  _427
REMARK  169  A    between atoms: _427  and  _428
REMARK  170  A    between atoms: _427  and  _430
REMARK  171  A    between atoms: _430  and  _431
REMARK  172  A    between atoms: _441  and  _443
REMARK  173  A    between atoms: _443  and  _444
REMARK  174  A    between atoms: _443  and  _446
REMARK  175  A    between atoms: _446  and  _447
REMARK  176  A    between atoms: _452  and  _454
REMARK  177  A    between atoms: _454  and  _455
REMARK  178  A    between atoms: _454  and  _457
REMARK  179  A    between atoms: _457  and  _458
REMARK  180  A    between atoms: _458  and  _459
REMARK  181  A    between atoms: _459  and  _460
REMARK  182  A    between atoms: _460  and  _461
REMARK  183  A    between atoms: _465  and  _467
REMARK  184  A    between atoms: _467  and  _468
REMARK  185  A    between atoms: _467  and  _470
REMARK  186  A    between atoms: _470  and  _471
REMARK  187  A    between atoms: _477  and  _479
REMARK  188  A    between atoms: _479  and  _480
REMARK  189  A    between atoms: _482  and  _484
REMARK  190  A    between atoms: _484  and  _485
REMARK  191  A    between atoms: _484  and  _487
REMARK  192  A    between atoms: _487  and  _488
REMARK  193  A    between atoms: _490  and  _492
REMARK  194  A    between atoms: _492  and  _493
REMARK  195  A    between atoms: _492  and  _495
REMARK  196  A    between atoms: _495  and  _496
REMARK  197  A    between atoms: _496  and  _497
REMARK  198  A    between atoms: _497  and  _498
REMARK  199  A    between atoms: _498  and  _499
REMARK  200  A    between atoms: _503  and  _505
REMARK  201  A    between atoms: _505  and  _506
REMARK  202  A    between atoms: _505  and  _508
REMARK  203  A    between atoms: _508  and  _509
REMARK  204  A    between atoms: _514  and  _516
REMARK  205  A    between atoms: _516  and  _517
REMARK  206  A    between atoms: _516  and  _519
REMARK  207  A    between atoms: _519  and  _520
REMARK  208  A    between atoms: _520  and  _521
REMARK  209  A    between atoms: _521  and  _522
REMARK  210  A    between atoms: _531  and  _533
REMARK  211  A    between atoms: _533  and  _534
REMARK  212  A    between atoms: _533  and  _536
REMARK  213  A    between atoms: _536  and  _537
REMARK  214  A    between atoms: _537  and  _538
REMARK  215  A    between atoms: _543  and  _545
REMARK  216  A    between atoms: _545  and  _546
REMARK  217  A    between atoms: _545  and  _548
REMARK  218  A    between atoms: _548  and  _549
REMARK  219  A    between atoms: _549  and  _550
REMARK  220  A    between atoms: _555  and  _557
REMARK  221  A    between atoms: _557  and  _558
REMARK  222  A    between atoms: _557  and  _560
REMARK  223  A    between atoms: _560  and  _561
REMARK  224  A    between atoms: _564  and  _566
REMARK  225  A    between atoms: _566  and  _567
REMARK  226  A    between atoms: _566  and  _569
REMARK  227  A    between atoms: _569  and  _570
REMARK  228  A    between atoms: _570  and  _571
REMARK  229  A    between atoms: _573  and  _575
REMARK  230  A    between atoms: _575  and  _576
REMARK  231  A    between atoms: _575  and  _578
REMARK  232  A    between atoms: _578  and  _579
REMARK  233  A    between atoms: _581  and  _583
REMARK  234  A    between atoms: _583  and  _584
REMARK  235  A    between atoms: _586  and  _588
REMARK  236  A    between atoms: _588  and  _589
REMARK  237  A    between atoms: _588  and  _591
REMARK  238  A    between atoms: _591  and  _592
REMARK  239  A    between atoms: _597  and  _598
REMARK  240  A    between atoms: _600  and  _602
REMARK  241  A    between atoms: _602  and  _603
REMARK  242  A    between atoms: _602  and  _605
REMARK  243  A    between atoms: _605  and  _606
REMARK  244  A    between atoms: _616  and  _618
REMARK  245  A    between atoms: _618  and  _619
REMARK  246  A    between atoms: _618  and  _621
REMARK  247  A    between atoms: _621  and  _622
REMARK  248  A    between atoms: _625  and  _627
REMARK  249  A    between atoms: _627  and  _628
REMARK  250  A    between atoms: _631  and  _633
REMARK  251  A    between atoms: _633  and  _634
REMARK  252  A    between atoms: _637  and  _639
REMARK  253  A    between atoms: _639  and  _640
REMARK  254  A    between atoms: _639  and  _642
REMARK  255  A    between atoms: _642  and  _643
REMARK  256  A    between atoms: _647  and  _648
REMARK                            x       y       z     vdW  Elec       q    Type
REMARK                         _______ _______ _______ _____ _____    ______ ____
ROOT
ATOM      1  O   HOH     1      36.307  60.225  25.640  0.00  0.00    +0.000 OA
ENDROOT
TORSDOF 0
REMARK  Name = ../refined-set-2016/4uac/4uac_pocket.pdb
REMARK  256 active torsions:
REMARK  status: ('A' for Active; 'I' for Inactive)
REMARK    1  A    between atoms: _1  and  _3
REMARK    2  A    between atoms: _3  and  _4
REMARK    3  A    between atoms: _7  and  _8
REMARK    4  A    between atoms: _13  and  _15
REMARK    5  A    between atoms: _15  and  _16
REMARK    6  A    between atoms: _19  and  _21
REMARK    7  A    between atoms: _21  and  _22
REMARK    8  A    between atoms: _21  and  _24
REMARK    9  A    between atoms: _24  and  _25
REMARK   10  A    between atoms: _25  and  _26
REMARK   11  A    between atoms: _29  and  _31
REMARK   12  A    between atoms: _31  and  _32
REMARK   13  A    between atoms: _31  and  _34
REMARK   14  A    between atoms: _34  and  _35
REMARK   15  A    between atoms: _38  and  _40
REMARK   16  A    between atoms: _40  and  _41
REMARK   17  A    between atoms: _40  and  _43
REMARK   18  A    between atoms: _43  and  _44
REMARK   19  A    between atoms: _46  and  _48
REMARK   20  A    between atoms: _48  and  _49
REMARK   21  A    between atoms: _48  and  _51
REMARK   22  A    between atoms: _51  and  _52
REMARK   23  A    between atoms: _54  and  _56
REMARK   24  A    between atoms: _56  and  _57
REMARK   25  A    between atoms: _56  and  _59
REMARK   26  A    between atoms: _59  and  _60
REMARK   27  A    between atoms: _60  and  _61
REMARK   28  A    between atoms: _64  and  _66
REMARK   29  A    between atoms: _66  and  _67
REMARK   30  A    between atoms: _66  and  _69
REMARK   31  A    between atoms: _69  and  _70
REMARK   32  A    between atoms: _72  and  _74
REMARK   33  A    between atoms: _74  and  _75
REMARK   34  A    between atoms: _74  and  _77
REMARK   35  A    between atoms: _77  and  _78
REMARK   36  A    between atoms: _81  and  _83
REMARK   37  A    between atoms: _83  and  _84
REMARK   38  A    between atoms: _87  and  _89
REMARK   39  A    between atoms: _89  and  _90
REMARK   40  A    between atoms: _89  and  _92
REMARK   41  A    between atoms: _92  and  _93
REMARK   42  A    between atoms: _93  and  _94
REMARK   43  A    between atoms: _94  and  _95
REMARK   44  A    between atoms: _95  and  _96
REMARK   45  A    between atoms: _100  and  _102
REMARK   46  A    between atoms: _102  and  _103
REMARK   47  A    between atoms: _102  and  _105
REMARK   48  A    between atoms: _105  and  _106
REMARK   49  A    between atoms: _109  and  _111
REMARK   50  A    between atoms: _111  and  _112
REMARK   51  A    between atoms: _111  and  _114
REMARK   52  A    between atoms: _117  and  _119
REMARK   53  A    between atoms: _119  and  _120
REMARK   54  A    between atoms: _119  and  _122
REMARK   55  A    between atoms: _122  and  _123
REMARK   56  A    between atoms: _126  and  _128
REMARK   57  A    between atoms: _128  and  _129
REMARK   58  A    between atoms: _128  and  _131
REMARK   59  A    between atoms: _131  and  _132
REMARK   60  A    between atoms: _132  and  _133
REMARK   61  A    between atoms: _135  and  _137
REMARK   62  A    between atoms: _137  and  _138
REMARK   63  A    between atoms: _137  and  _140
REMARK   64  A    between atoms: _140  and  _141
REMARK   65  A    between atoms: _147  and  _149
REMARK   66  A    between atoms: _149  and  _150
REMARK   67  A    between atoms: _153  and  _155
REMARK   68  A    between atoms: _155  and  _156
REMARK   69  A    between atoms: _155  and  _158
REMARK   70  A    between atoms: _158  and  _159
REMARK   71  A    between atoms: _164  and  _166
REMARK   72  A    between atoms: _166  and  _167
REMARK   73  A    between atoms: _166  and  _169
REMARK   74  A    between atoms: _169  and  _170
REMARK   75  A    between atoms: _173  and  _175
REMARK   76  A    between atoms: _175  and  _176
REMARK   77  A    between atoms: _175  and  _178
REMARK   78  A    between atoms: _178  and  _179
REMARK   79  A    between atoms: _179  and  _180
REMARK   80  A    between atoms: _185  and  _187
REMARK   81  A    between atoms: _187  and  _188
REMARK   82  A    between atoms: _187  and  _190
REMARK   83  A    between atoms: _190  and  _191
REMARK   84  A    between atoms: _195  and  _196
REMARK   85  A    between atoms: _201  and  _203
REMARK   86  A    between atoms: _203  and  _204
REMARK   87  A    between atoms: _203  and  _206
REMARK   88  A    between atoms: _206  and  _207
REMARK   89  A    between atoms: _212  and  _213
REMARK   90  A    between atoms: _215  and  _217
REMARK   91  A    between atoms: _217  and  _218
REMARK   92  A    between atoms: _217  and  _220
REMARK   93  A    between atoms: _220  and  _221
REMARK   94  A    between atoms: _224  and  _226
REMARK   95  A    between atoms: _226  and  _227
REMARK   96  A    between atoms: _226  and  _229
REMARK   97  A    between atoms: _229  and  _230
REMARK   98  A    between atoms: _232  and  _234
REMARK   99  A    between atoms: _234  and  _235
REMARK  100  A    between atoms: _234  and  _237
REMARK  101  A    between atoms: _237  and  _238
REMARK  102  A    between atoms: _243  and  _245
REMARK  103  A    between atoms: _245  and  _246
REMARK  104  A    between atoms: _245  and  _248
REMARK  105  A    between atoms: _248  and  _249
REMARK  106  A    between atoms: _252  and  _254
REMARK  107  A    between atoms: _254  and  _255
REMARK  108  A    between atoms: _254  and  _257
REMARK  109  A    between atoms: _257  and  _258
REMARK  110  A    between atoms: _269  and  _270
REMARK  111  A    between atoms: _275  and  _277
REMARK  112  A    between atoms: _277  and  _278
REMARK  113  A    between atoms: _277  and  _280
REMARK  114  A    between atoms: _280  and  _281
REMARK  115  A    between atoms: _284  and  _286
REMARK  116  A    between atoms: _286  and  _287
REMARK  117  A    between atoms: _286  and  _289
REMARK  118  A    between atoms: _289  and  _290
REMARK  119  A    between atoms: _295  and  _297
REMARK  120  A    between atoms: _297  and  _298
REMARK  121  A    between atoms: _300  and  _302
REMARK  122  A    between atoms: _302  and  _303
REMARK  123  A    between atoms: _302  and  _305
REMARK  124  A    between atoms: _305  and  _306
REMARK  125  A    between atoms: _316  and  _318
REMARK  126  A    between atoms: _318  and  _319
REMARK  127  A    between atoms: _318  and  _321
REMARK  128  A    between atoms: _321  and  _322
REMARK  129  A    between atoms: _327  and  _328
REMARK  130  A    between atoms: _330  and  _332
REMARK  131  A    between atoms: _332  and  _333
REMARK  132  A    between atoms: _332  and  _335
REMARK  133  A    between atoms: _335  and  _336
REMARK  134  A    between atoms: _339  and  _341
REMARK  135  A    between atoms: _341  and  _342
REMARK  136  A    between atoms: _341  and  _344
REMARK  137  A    between atoms: _344  and  _345
REMARK  138  A    between atoms: _350  and  _352
REMARK  139  A    between atoms: _352  and  _353
REMARK  140  A    between atoms: _352  and  _355
REMARK  141  A    between atoms: _355  and  _356
REMARK  142  A    between atoms: _361  and  _363
REMARK  143  A    between atoms: _363  and  _364
REMARK  144  A    between atoms: _363  and  _366
REMARK  145  A    between atoms: _366  and  _367
REMARK  146  A    between atoms: _367  and  _368
REMARK  147  A    between atoms: _371  and  _373
REMARK  148  A    between atoms: _373  and  _374
REMARK  149  A    between atoms: _376  and  _378
REMARK  150  A    between atoms: _378  and  _379
REMARK  151  A    between atoms: _378  and  _381
REMARK  152  A    between atoms: _381  and  _382
REMARK  153  A    between atoms: _384  and  _386
REMARK  154  A    between atoms: _386  and  _387
REMARK  155  A    between atoms: _386  and  _389
REMARK  156  A    between atoms: _389  and  _390
REMARK  157  A    between atoms: _395  and  _396
REMARK  158  A    between atoms: _398  and  _400
REMARK  159  A    between atoms: _400  and  _401
REMARK  160  A    between atoms: _400  and  _403
REMARK  161  A    between atoms: _403  and  _404
REMARK  162  A    between atoms: _409  and  _411
REMARK  163  A    between atoms: _411  and  _412
REMARK  164  A    between atoms: _414  and  _416
REMARK  165  A    between atoms: _416  and  _417
REMARK  166  A    between atoms: _416  and  _419
REMARK  167  A    between atoms: _419  and  _420
REMARK  168  A    between atoms: _425  and  _427
REMARK  169  A    between atoms: _427  and  _428
REMARK  170  A    between atoms: _427  and  _430
REMARK  171  A    between atoms: _430  and  _431
REMARK  172  A    between atoms: _441  and  _443
REMARK  173  A    between atoms: _443  and  _444
REMARK  174  A    between atoms: _443  and  _446
REMARK  175  A    between atoms: _446  and  _447
REMARK  176  A    between atoms: _452  and  _454
REMARK  177  A    between atoms: _454  and  _455
REMARK  178  A    between atoms: _454  and  _457
REMARK  179  A    between atoms: _457  and  _458
REMARK  180  A    between atoms: _458  and  _459
REMARK  181  A    between atoms: _459  and  _460
REMARK  182  A    between atoms: _460  and  _461
REMARK  183  A    between atoms: _465  and  _467
REMARK  184  A    between atoms: _467  and  _468
REMARK  185  A    between atoms: _467  and  _470
REMARK  186  A    between atoms: _470  and  _471
REMARK  187  A    between atoms: _477  and  _479
REMARK  188  A    between atoms: _479  and  _480
REMARK  189  A    between atoms: _482  and  _484
REMARK  190  A    between atoms: _484  and  _485
REMARK  191  A    between atoms: _484  and  _487
REMARK  192  A    between atoms: _487  and  _488
REMARK  193  A    between atoms: _490  and  _492
REMARK  194  A    between atoms: _492  and  _493
REMARK  195  A    between atoms: _492  and  _495
REMARK  196  A    between atoms: _495  and  _496
REMARK  197  A    between atoms: _496  and  _497
REMARK  198  A    between atoms: _497  and  _498
REMARK  199  A    between atoms: _498  and  _499
REMARK  200  A    between atoms: _503  and  _505
REMARK  201  A    between atoms: _505  and  _506
REMARK  202  A    between atoms: _505  and  _508
REMARK  203  A    between atoms: _508  and  _509
REMARK  204  A    between atoms: _514  and  _516
REMARK  205  A    between atoms: _516  and  _517
REMARK  206  A    between atoms: _516  and  _519
REMARK  207  A    between atoms: _519  and  _520
REMARK  208  A    between atoms: _520  and  _521
REMARK  209  A    between atoms: _521  and  _522
REMARK  210  A    between atoms: _531  and  _533
REMARK  211  A    between atoms: _533  and  _534
REMARK  212  A    between atoms: _533  and  _536
REMARK  213  A    between atoms: _536  and  _537
REMARK  214  A    between atoms: _537  and  _538
REMARK  215  A    between atoms: _543  and  _545
REMARK  216  A    between atoms: _545  and  _546
REMARK  217  A    between atoms: _545  and  _548
REMARK  218  A    between atoms: _548  and  _549
REMARK  219  A    between atoms: _549  and  _550
REMARK  220  A    between atoms: _555  and  _557
REMARK  221  A    between atoms: _557  and  _558
REMARK  222  A    between atoms: _557  and  _560
REMARK  223  A    between atoms: _560  and  _561
REMARK  224  A    between atoms: _564  and  _566
REMARK  225  A    between atoms: _566  and  _567
REMARK  226  A    between atoms: _566  and  _569
REMARK  227  A    between atoms: _569  and  _570
REMARK  228  A    between atoms: _570  and  _571
REMARK  229  A    between atoms: _573  and  _575
REMARK  230  A    between atoms: _575  and  _576
REMARK  231  A    between atoms: _575  and  _578
REMARK  232  A    between atoms: _578  and  _579
REMARK  233  A    between atoms: _581  and  _583
REMARK  234  A    between atoms: _583  and  _584
REMARK  235  A    between atoms: _586  and  _588
REMARK  236  A    between atoms: _588  and  _589
REMARK  237  A    between atoms: _588  and  _591
REMARK  238  A    between atoms: _591  and  _592
REMARK  239  A    between atoms: _597  and  _598
REMARK  240  A    between atoms: _600  and  _602
REMARK  241  A    between atoms: _602  and  _603
REMARK  242  A    between atoms: _602  and  _605
REMARK  243  A    between atoms: _605  and  _606
REMARK  244  A    between atoms: _616  and  _618
REMARK  245  A    between atoms: _618  and  _619
REMARK  246  A    between atoms: _618  and  _621
REMARK  247  A    between atoms: _621  and  _622
REMARK  248  A    between atoms: _625  and  _627
REMARK  249  A    between atoms: _627  and  _628
REMARK  250  A    between atoms: _631  and  _633
REMARK  251  A    between atoms: _633  and  _634
REMARK  252  A    between atoms: _637  and  _639
REMARK  253  A    between atoms: _639  and  _640
REMARK  254  A    between atoms: _639  and  _642
REMARK  255  A    between atoms: _642  and  _643
REMARK  256  A    between atoms: _647  and  _648
REMARK                            x       y       z     vdW  Elec       q    Type
REMARK                         _______ _______ _______ _____ _____    ______ ____
ROOT
ATOM      1  O   HOH     1      19.741  60.684  29.898  0.00  0.00    +0.000 OA
ENDROOT
TORSDOF 0
REMARK  Name = ../refined-set-2016/4uac/4uac_pocket.pdb
REMARK  256 active torsions:
REMARK  status: ('A' for Active; 'I' for Inactive)
REMARK    1  A    between atoms: _1  and  _3
REMARK    2  A    between atoms: _3  and  _4
REMARK    3  A    between atoms: _7  and  _8
REMARK    4  A    between atoms: _13  and  _15
REMARK    5  A    between atoms: _15  and  _16
REMARK    6  A    between atoms: _19  and  _21
REMARK    7  A    between atoms: _21  and  _22
REMARK    8  A    between atoms: _21  and  _24
REMARK    9  A    between atoms: _24  and  _25
REMARK   10  A    between atoms: _25  and  _26
REMARK   11  A    between atoms: _29  and  _31
REMARK   12  A    between atoms: _31  and  _32
REMARK   13  A    between atoms: _31  and  _34
REMARK   14  A    between atoms: _34  and  _35
REMARK   15  A    between atoms: _38  and  _40
REMARK   16  A    between atoms: _40  and  _41
REMARK   17  A    between atoms: _40  and  _43
REMARK   18  A    between atoms: _43  and  _44
REMARK   19  A    between atoms: _46  and  _48
REMARK   20  A    between atoms: _48  and  _49
REMARK   21  A    between atoms: _48  and  _51
REMARK   22  A    between atoms: _51  and  _52
REMARK   23  A    between atoms: _54  and  _56
REMARK   24  A    between atoms: _56  and  _57
REMARK   25  A    between atoms: _56  and  _59
REMARK   26  A    between atoms: _59  and  _60
REMARK   27  A    between atoms: _60  and  _61
REMARK   28  A    between atoms: _64  and  _66
REMARK   29  A    between atoms: _66  and  _67
REMARK   30  A    between atoms: _66  and  _69
REMARK   31  A    between atoms: _69  and  _70
REMARK   32  A    between atoms: _72  and  _74
REMARK   33  A    between atoms: _74  and  _75
REMARK   34  A    between atoms: _74  and  _77
REMARK   35  A    between atoms: _77  and  _78
REMARK   36  A    between atoms: _81  and  _83
REMARK   37  A    between atoms: _83  and  _84
REMARK   38  A    between atoms: _87  and  _89
REMARK   39  A    between atoms: _89  and  _90
REMARK   40  A    between atoms: _89  and  _92
REMARK   41  A    between atoms: _92  and  _93
REMARK   42  A    between atoms: _93  and  _94
REMARK   43  A    between atoms: _94  and  _95
REMARK   44  A    between atoms: _95  and  _96
REMARK   45  A    between atoms: _100  and  _102
REMARK   46  A    between atoms: _102  and  _103
REMARK   47  A    between atoms: _102  and  _105
REMARK   48  A    between atoms: _105  and  _106
REMARK   49  A    between atoms: _109  and  _111
REMARK   50  A    between atoms: _111  and  _112
REMARK   51  A    between atoms: _111  and  _114
REMARK   52  A    between atoms: _117  and  _119
REMARK   53  A    between atoms: _119  and  _120
REMARK   54  A    between atoms: _119  and  _122
REMARK   55  A    between atoms: _122  and  _123
REMARK   56  A    between atoms: _126  and  _128
REMARK   57  A    between atoms: _128  and  _129
REMARK   58  A    between atoms: _128  and  _131
REMARK   59  A    between atoms: _131  and  _132
REMARK   60  A    between atoms: _132  and  _133
REMARK   61  A    between atoms: _135  and  _137
REMARK   62  A    between atoms: _137  and  _138
REMARK   63  A    between atoms: _137  and  _140
REMARK   64  A    between atoms: _140  and  _141
REMARK   65  A    between atoms: _147  and  _149
REMARK   66  A    between atoms: _149  and  _150
REMARK   67  A    between atoms: _153  and  _155
REMARK   68  A    between atoms: _155  and  _156
REMARK   69  A    between atoms: _155  and  _158
REMARK   70  A    between atoms: _158  and  _159
REMARK   71  A    between atoms: _164  and  _166
REMARK   72  A    between atoms: _166  and  _167
REMARK   73  A    between atoms: _166  and  _169
REMARK   74  A    between atoms: _169  and  _170
REMARK   75  A    between atoms: _173  and  _175
REMARK   76  A    between atoms: _175  and  _176
REMARK   77  A    between atoms: _175  and  _178
REMARK   78  A    between atoms: _178  and  _179
REMARK   79  A    between atoms: _179  and  _180
REMARK   80  A    between atoms: _185  and  _187
REMARK   81  A    between atoms: _187  and  _188
REMARK   82  A    between atoms: _187  and  _190
REMARK   83  A    between atoms: _190  and  _191
REMARK   84  A    between atoms: _195  and  _196
REMARK   85  A    between atoms: _201  and  _203
REMARK   86  A    between atoms: _203  and  _204
REMARK   87  A    between atoms: _203  and  _206
REMARK   88  A    between atoms: _206  and  _207
REMARK   89  A    between atoms: _212  and  _213
REMARK   90  A    between atoms: _215  and  _217
REMARK   91  A    between atoms: _217  and  _218
REMARK   92  A    between atoms: _217  and  _220
REMARK   93  A    between atoms: _220  and  _221
REMARK   94  A    between atoms: _224  and  _226
REMARK   95  A    between atoms: _226  and  _227
REMARK   96  A    between atoms: _226  and  _229
REMARK   97  A    between atoms: _229  and  _230
REMARK   98  A    between atoms: _232  and  _234
REMARK   99  A    between atoms: _234  and  _235
REMARK  100  A    between atoms: _234  and  _237
REMARK  101  A    between atoms: _237  and  _238
REMARK  102  A    between atoms: _243  and  _245
REMARK  103  A    between atoms: _245  and  _246
REMARK  104  A    between atoms: _245  and  _248
REMARK  105  A    between atoms: _248  and  _249
REMARK  106  A    between atoms: _252  and  _254
REMARK  107  A    between atoms: _254  and  _255
REMARK  108  A    between atoms: _254  and  _257
REMARK  109  A    between atoms: _257  and  _258
REMARK  110  A    between atoms: _269  and  _270
REMARK  111  A    between atoms: _275  and  _277
REMARK  112  A    between atoms: _277  and  _278
REMARK  113  A    between atoms: _277  and  _280
REMARK  114  A    between atoms: _280  and  _281
REMARK  115  A    between atoms: _284  and  _286
REMARK  116  A    between atoms: _286  and  _287
REMARK  117  A    between atoms: _286  and  _289
REMARK  118  A    between atoms: _289  and  _290
REMARK  119  A    between atoms: _295  and  _297
REMARK  120  A    between atoms: _297  and  _298
REMARK  121  A    between atoms: _300  and  _302
REMARK  122  A    between atoms: _302  and  _303
REMARK  123  A    between atoms: _302  and  _305
REMARK  124  A    between atoms: _305  and  _306
REMARK  125  A    between atoms: _316  and  _318
REMARK  126  A    between atoms: _318  and  _319
REMARK  127  A    between atoms: _318  and  _321
REMARK  128  A    between atoms: _321  and  _322
REMARK  129  A    between atoms: _327  and  _328
REMARK  130  A    between atoms: _330  and  _332
REMARK  131  A    between atoms: _332  and  _333
REMARK  132  A    between atoms: _332  and  _335
REMARK  133  A    between atoms: _335  and  _336
REMARK  134  A    between atoms: _339  and  _341
REMARK  135  A    between atoms: _341  and  _342
REMARK  136  A    between atoms: _341  and  _344
REMARK  137  A    between atoms: _344  and  _345
REMARK  138  A    between atoms: _350  and  _352
REMARK  139  A    between atoms: _352  and  _353
REMARK  140  A    between atoms: _352  and  _355
REMARK  141  A    between atoms: _355  and  _356
REMARK  142  A    between atoms: _361  and  _363
REMARK  143  A    between atoms: _363  and  _364
REMARK  144  A    between atoms: _363  and  _366
REMARK  145  A    between atoms: _366  and  _367
REMARK  146  A    between atoms: _367  and  _368
REMARK  147  A    between atoms: _371  and  _373
REMARK  148  A    between atoms: _373  and  _374
REMARK  149  A    between atoms: _376  and  _378
REMARK  150  A    between atoms: _378  and  _379
REMARK  151  A    between atoms: _378  and  _381
REMARK  152  A    between atoms: _381  and  _382
REMARK  153  A    between atoms: _384  and  _386
REMARK  154  A    between atoms: _386  and  _387
REMARK  155  A    between atoms: _386  and  _389
REMARK  156  A    between atoms: _389  and  _390
REMARK  157  A    between atoms: _395  and  _396
REMARK  158  A    between atoms: _398  and  _400
REMARK  159  A    between atoms: _400  and  _401
REMARK  160  A    between atoms: _400  and  _403
REMARK  161  A    between atoms: _403  and  _404
REMARK  162  A    between atoms: _409  and  _411
REMARK  163  A    between atoms: _411  and  _412
REMARK  164  A    between atoms: _414  and  _416
REMARK  165  A    between atoms: _416  and  _417
REMARK  166  A    between atoms: _416  and  _419
REMARK  167  A    between atoms: _419  and  _420
REMARK  168  A    between atoms: _425  and  _427
REMARK  169  A    between atoms: _427  and  _428
REMARK  170  A    between atoms: _427  and  _430
REMARK  171  A    between atoms: _430  and  _431
REMARK  172  A    between atoms: _441  and  _443
REMARK  173  A    between atoms: _443  and  _444
REMARK  174  A    between atoms: _443  and  _446
REMARK  175  A    between atoms: _446  and  _447
REMARK  176  A    between atoms: _452  and  _454
REMARK  177  A    between atoms: _454  and  _455
REMARK  178  A    between atoms: _454  and  _457
REMARK  179  A    between atoms: _457  and  _458
REMARK  180  A    between atoms: _458  and  _459
REMARK  181  A    between atoms: _459  and  _460
REMARK  182  A    between atoms: _460  and  _461
REMARK  183  A    between atoms: _465  and  _467
REMARK  184  A    between atoms: _467  and  _468
REMARK  185  A    between atoms: _467  and  _470
REMARK  186  A    between atoms: _470  and  _471
REMARK  187  A    between atoms: _477  and  _479
REMARK  188  A    between atoms: _479  and  _480
REMARK  189  A    between atoms: _482  and  _484
REMARK  190  A    between atoms: _484  and  _485
REMARK  191  A    between atoms: _484  and  _487
REMARK  192  A    between atoms: _487  and  _488
REMARK  193  A    between atoms: _490  and  _492
REMARK  194  A    between atoms: _492  and  _493
REMARK  195  A    between atoms: _492  and  _495
REMARK  196  A    between atoms: _495  and  _496
REMARK  197  A    between atoms: _496  and  _497
REMARK  198  A    between atoms: _497  and  _498
REMARK  199  A    between atoms: _498  and  _499
REMARK  200  A    between atoms: _503  and  _505
REMARK  201  A    between atoms: _505  and  _506
REMARK  202  A    between atoms: _505  and  _508
REMARK  203  A    between atoms: _508  and  _509
REMARK  204  A    between atoms: _514  and  _516
REMARK  205  A    between atoms: _516  and  _517
REMARK  206  A    between atoms: _516  and  _519
REMARK  207  A    between atoms: _519  and  _520
REMARK  208  A    between atoms: _520  and  _521
REMARK  209  A    between atoms: _521  and  _522
REMARK  210  A    between atoms: _531  and  _533
REMARK  211  A    between atoms: _533  and  _534
REMARK  212  A    between atoms: _533  and  _536
REMARK  213  A    between atoms: _536  and  _537
REMARK  214  A    between atoms: _537  and  _538
REMARK  215  A    between atoms: _543  and  _545
REMARK  216  A    between atoms: _545  and  _546
REMARK  217  A    between atoms: _545  and  _548
REMARK  218  A    between atoms: _548  and  _549
REMARK  219  A    between atoms: _549  and  _550
REMARK  220  A    between atoms: _555  and  _557
REMARK  221  A    between atoms: _557  and  _558
REMARK  222  A    between atoms: _557  and  _560
REMARK  223  A    between atoms: _560  and  _561
REMARK  224  A    between atoms: _564  and  _566
REMARK  225  A    between atoms: _566  and  _567
REMARK  226  A    between atoms: _566  and  _569
REMARK  227  A    between atoms: _569  and  _570
REMARK  228  A    between atoms: _570  and  _571
REMARK  229  A    between atoms: _573  and  _575
REMARK  230  A    between atoms: _575  and  _576
REMARK  231  A    between atoms: _575  and  _578
REMARK  232  A    between atoms: _578  and  _579
REMARK  233  A    between atoms: _581  and  _583
REMARK  234  A    between atoms: _583  and  _584
REMARK  235  A    between atoms: _586  and  _588
REMARK  236  A    between atoms: _588  and  _589
REMARK  237  A    between atoms: _588  and  _591
REMARK  238  A    between atoms: _591  and  _592
REMARK  239  A    between atoms: _597  and  _598
REMARK  240  A    between atoms: _600  and  _602
REMARK  241  A    between atoms: _602  and  _603
REMARK  242  A    between atoms: _602  and  _605
REMARK  243  A    between atoms: _605  and  _606
REMARK  244  A    between atoms: _616  and  _618
REMARK  245  A    between atoms: _618  and  _619
REMARK  246  A    between atoms: _618  and  _621
REMARK  247  A    between atoms: _621  and  _622
REMARK  248  A    between atoms: _625  and  _627
REMARK  249  A    between atoms: _627  and  _628
REMARK  250  A    between atoms: _631  and  _633
REMARK  251  A    between atoms: _633  and  _634
REMARK  252  A    between atoms: _637  and  _639
REMARK  253  A    between atoms: _639  and  _640
REMARK  254  A    between atoms: _639  and  _642
REMARK  255  A    between atoms: _642  and  _643
REMARK  256  A    between atoms: _647  and  _648
REMARK                            x       y       z     vdW  Elec       q    Type
REMARK                         _______ _______ _______ _____ _____    ______ ____
ROOT
ATOM      1  O   HOH     1      18.413  66.730  29.824  0.00  0.00    +0.000 OA
ENDROOT
TORSDOF 0
REMARK  Name = ../refined-set-2016/4uac/4uac_pocket.pdb
REMARK  256 active torsions:
REMARK  status: ('A' for Active; 'I' for Inactive)
REMARK    1  A    between atoms: _1  and  _3
REMARK    2  A    between atoms: _3  and  _4
REMARK    3  A    between atoms: _7  and  _8
REMARK    4  A    between atoms: _13  and  _15
REMARK    5  A    between atoms: _15  and  _16
REMARK    6  A    between atoms: _19  and  _21
REMARK    7  A    between atoms: _21  and  _22
REMARK    8  A    between atoms: _21  and  _24
REMARK    9  A    between atoms: _24  and  _25
REMARK   10  A    between atoms: _25  and  _26
REMARK   11  A    between atoms: _29  and  _31
REMARK   12  A    between atoms: _31  and  _32
REMARK   13  A    between atoms: _31  and  _34
REMARK   14  A    between atoms: _34  and  _35
REMARK   15  A    between atoms: _38  and  _40
REMARK   16  A    between atoms: _40  and  _41
REMARK   17  A    between atoms: _40  and  _43
REMARK   18  A    between atoms: _43  and  _44
REMARK   19  A    between atoms: _46  and  _48
REMARK   20  A    between atoms: _48  and  _49
REMARK   21  A    between atoms: _48  and  _51
REMARK   22  A    between atoms: _51  and  _52
REMARK   23  A    between atoms: _54  and  _56
REMARK   24  A    between atoms: _56  and  _57
REMARK   25  A    between atoms: _56  and  _59
REMARK   26  A    between atoms: _59  and  _60
REMARK   27  A    between atoms: _60  and  _61
REMARK   28  A    between atoms: _64  and  _66
REMARK   29  A    between atoms: _66  and  _67
REMARK   30  A    between atoms: _66  and  _69
REMARK   31  A    between atoms: _69  and  _70
REMARK   32  A    between atoms: _72  and  _74
REMARK   33  A    between atoms: _74  and  _75
REMARK   34  A    between atoms: _74  and  _77
REMARK   35  A    between atoms: _77  and  _78
REMARK   36  A    between atoms: _81  and  _83
REMARK   37  A    between atoms: _83  and  _84
REMARK   38  A    between atoms: _87  and  _89
REMARK   39  A    between atoms: _89  and  _90
REMARK   40  A    between atoms: _89  and  _92
REMARK   41  A    between atoms: _92  and  _93
REMARK   42  A    between atoms: _93  and  _94
REMARK   43  A    between atoms: _94  and  _95
REMARK   44  A    between atoms: _95  and  _96
REMARK   45  A    between atoms: _100  and  _102
REMARK   46  A    between atoms: _102  and  _103
REMARK   47  A    between atoms: _102  and  _105
REMARK   48  A    between atoms: _105  and  _106
REMARK   49  A    between atoms: _109  and  _111
REMARK   50  A    between atoms: _111  and  _112
REMARK   51  A    between atoms: _111  and  _114
REMARK   52  A    between atoms: _117  and  _119
REMARK   53  A    between atoms: _119  and  _120
REMARK   54  A    between atoms: _119  and  _122
REMARK   55  A    between atoms: _122  and  _123
REMARK   56  A    between atoms: _126  and  _128
REMARK   57  A    between atoms: _128  and  _129
REMARK   58  A    between atoms: _128  and  _131
REMARK   59  A    between atoms: _131  and  _132
REMARK   60  A    between atoms: _132  and  _133
REMARK   61  A    between atoms: _135  and  _137
REMARK   62  A    between atoms: _137  and  _138
REMARK   63  A    between atoms: _137  and  _140
REMARK   64  A    between atoms: _140  and  _141
REMARK   65  A    between atoms: _147  and  _149
REMARK   66  A    between atoms: _149  and  _150
REMARK   67  A    between atoms: _153  and  _155
REMARK   68  A    between atoms: _155  and  _156
REMARK   69  A    between atoms: _155  and  _158
REMARK   70  A    between atoms: _158  and  _159
REMARK   71  A    between atoms: _164  and  _166
REMARK   72  A    between atoms: _166  and  _167
REMARK   73  A    between atoms: _166  and  _169
REMARK   74  A    between atoms: _169  and  _170
REMARK   75  A    between atoms: _173  and  _175
REMARK   76  A    between atoms: _175  and  _176
REMARK   77  A    between atoms: _175  and  _178
REMARK   78  A    between atoms: _178  and  _179
REMARK   79  A    between atoms: _179  and  _180
REMARK   80  A    between atoms: _185  and  _187
REMARK   81  A    between atoms: _187  and  _188
REMARK   82  A    between atoms: _187  and  _190
REMARK   83  A    between atoms: _190  and  _191
REMARK   84  A    between atoms: _195  and  _196
REMARK   85  A    between atoms: _201  and  _203
REMARK   86  A    between atoms: _203  and  _204
REMARK   87  A    between atoms: _203  and  _206
REMARK   88  A    between atoms: _206  and  _207
REMARK   89  A    between atoms: _212  and  _213
REMARK   90  A    between atoms: _215  and  _217
REMARK   91  A    between atoms: _217  and  _218
REMARK   92  A    between atoms: _217  and  _220
REMARK   93  A    between atoms: _220  and  _221
REMARK   94  A    between atoms: _224  and  _226
REMARK   95  A    between atoms: _226  and  _227
REMARK   96  A    between atoms: _226  and  _229
REMARK   97  A    between atoms: _229  and  _230
REMARK   98  A    between atoms: _232  and  _234
REMARK   99  A    between atoms: _234  and  _235
REMARK  100  A    between atoms: _234  and  _237
REMARK  101  A    between atoms: _237  and  _238
REMARK  102  A    between atoms: _243  and  _245
REMARK  103  A    between atoms: _245  and  _246
REMARK  104  A    between atoms: _245  and  _248
REMARK  105  A    between atoms: _248  and  _249
REMARK  106  A    between atoms: _252  and  _254
REMARK  107  A    between atoms: _254  and  _255
REMARK  108  A    between atoms: _254  and  _257
REMARK  109  A    between atoms: _257  and  _258
REMARK  110  A    between atoms: _269  and  _270
REMARK  111  A    between atoms: _275  and  _277
REMARK  112  A    between atoms: _277  and  _278
REMARK  113  A    between atoms: _277  and  _280
REMARK  114  A    between atoms: _280  and  _281
REMARK  115  A    between atoms: _284  and  _286
REMARK  116  A    between atoms: _286  and  _287
REMARK  117  A    between atoms: _286  and  _289
REMARK  118  A    between atoms: _289  and  _290
REMARK  119  A    between atoms: _295  and  _297
REMARK  120  A    between atoms: _297  and  _298
REMARK  121  A    between atoms: _300  and  _302
REMARK  122  A    between atoms: _302  and  _303
REMARK  123  A    between atoms: _302  and  _305
REMARK  124  A    between atoms: _305  and  _306
REMARK  125  A    between atoms: _316  and  _318
REMARK  126  A    between atoms: _318  and  _319
REMARK  127  A    between atoms: _318  and  _321
REMARK  128  A    between atoms: _321  and  _322
REMARK  129  A    between atoms: _327  and  _328
REMARK  130  A    between atoms: _330  and  _332
REMARK  131  A    between atoms: _332  and  _333
REMARK  132  A    between atoms: _332  and  _335
REMARK  133  A    between atoms: _335  and  _336
REMARK  134  A    between atoms: _339  and  _341
REMARK  135  A    between atoms: _341  and  _342
REMARK  136  A    between atoms: _341  and  _344
REMARK  137  A    between atoms: _344  and  _345
REMARK  138  A    between atoms: _350  and  _352
REMARK  139  A    between atoms: _352  and  _353
REMARK  140  A    between atoms: _352  and  _355
REMARK  141  A    between atoms: _355  and  _356
REMARK  142  A    between atoms: _361  and  _363
REMARK  143  A    between atoms: _363  and  _364
REMARK  144  A    between atoms: _363  and  _366
REMARK  145  A    between atoms: _366  and  _367
REMARK  146  A    between atoms: _367  and  _368
REMARK  147  A    between atoms: _371  and  _373
REMARK  148  A    between atoms: _373  and  _374
REMARK  149  A    between atoms: _376  and  _378
REMARK  150  A    between atoms: _378  and  _379
REMARK  151  A    between atoms: _378  and  _381
REMARK  152  A    between atoms: _381  and  _382
REMARK  153  A    between atoms: _384  and  _386
REMARK  154  A    between atoms: _386  and  _387
REMARK  155  A    between atoms: _386  and  _389
REMARK  156  A    between atoms: _389  and  _390
REMARK  157  A    between atoms: _395  and  _396
REMARK  158  A    between atoms: _398  and  _400
REMARK  159  A    between atoms: _400  and  _401
REMARK  160  A    between atoms: _400  and  _403
REMARK  161  A    between atoms: _403  and  _404
REMARK  162  A    between atoms: _409  and  _411
REMARK  163  A    between atoms: _411  and  _412
REMARK  164  A    between atoms: _414  and  _416
REMARK  165  A    between atoms: _416  and  _417
REMARK  166  A    between atoms: _416  and  _419
REMARK  167  A    between atoms: _419  and  _420
REMARK  168  A    between atoms: _425  and  _427
REMARK  169  A    between atoms: _427  and  _428
REMARK  170  A    between atoms: _427  and  _430
REMARK  171  A    between atoms: _430  and  _431
REMARK  172  A    between atoms: _441  and  _443
REMARK  173  A    between atoms: _443  and  _444
REMARK  174  A    between atoms: _443  and  _446
REMARK  175  A    between atoms: _446  and  _447
REMARK  176  A    between atoms: _452  and  _454
REMARK  177  A    between atoms: _454  and  _455
REMARK  178  A    between atoms: _454  and  _457
REMARK  179  A    between atoms: _457  and  _458
REMARK  180  A    between atoms: _458  and  _459
REMARK  181  A    between atoms: _459  and  _460
REMARK  182  A    between atoms: _460  and  _461
REMARK  183  A    between atoms: _465  and  _467
REMARK  184  A    between atoms: _467  and  _468
REMARK  185  A    between atoms: _467  and  _470
REMARK  186  A    between atoms: _470  and  _471
REMARK  187  A    between atoms: _477  and  _479
REMARK  188  A    between atoms: _479  and  _480
REMARK  189  A    between atoms: _482  and  _484
REMARK  190  A    between atoms: _484  and  _485
REMARK  191  A    between atoms: _484  and  _487
REMARK  192  A    between atoms: _487  and  _488
REMARK  193  A    between atoms: _490  and  _492
REMARK  194  A    between atoms: _492  and  _493
REMARK  195  A    between atoms: _492  and  _495
REMARK  196  A    between atoms: _495  and  _496
REMARK  197  A    between atoms: _496  and  _497
REMARK  198  A    between atoms: _497  and  _498
REMARK  199  A    between atoms: _498  and  _499
REMARK  200  A    between atoms: _503  and  _505
REMARK  201  A    between atoms: _505  and  _506
REMARK  202  A    between atoms: _505  and  _508
REMARK  203  A    between atoms: _508  and  _509
REMARK  204  A    between atoms: _514  and  _516
REMARK  205  A    between atoms: _516  and  _517
REMARK  206  A    between atoms: _516  and  _519
REMARK  207  A    between atoms: _519  and  _520
REMARK  208  A    between atoms: _520  and  _521
REMARK  209  A    between atoms: _521  and  _522
REMARK  210  A    between atoms: _531  and  _533
REMARK  211  A    between atoms: _533  and  _534
REMARK  212  A    between atoms: _533  and  _536
REMARK  213  A    between atoms: _536  and  _537
REMARK  214  A    between atoms: _537  and  _538
REMARK  215  A    between atoms: _543  and  _545
REMARK  216  A    between atoms: _545  and  _546
REMARK  217  A    between atoms: _545  and  _548
REMARK  218  A    between atoms: _548  and  _549
REMARK  219  A    between atoms: _549  and  _550
REMARK  220  A    between atoms: _555  and  _557
REMARK  221  A    between atoms: _557  and  _558
REMARK  222  A    between atoms: _557  and  _560
REMARK  223  A    between atoms: _560  and  _561
REMARK  224  A    between atoms: _564  and  _566
REMARK  225  A    between atoms: _566  and  _567
REMARK  226  A    between atoms: _566  and  _569
REMARK  227  A    between atoms: _569  and  _570
REMARK  228  A    between atoms: _570  and  _571
REMARK  229  A    between atoms: _573  and  _575
REMARK  230  A    between atoms: _575  and  _576
REMARK  231  A    between atoms: _575  and  _578
REMARK  232  A    between atoms: _578  and  _579
REMARK  233  A    between atoms: _581  and  _583
REMARK  234  A    between atoms: _583  and  _584
REMARK  235  A    between atoms: _586  and  _588
REMARK  236  A    between atoms: _588  and  _589
REMARK  237  A    between atoms: _588  and  _591
REMARK  238  A    between atoms: _591  and  _592
REMARK  239  A    between atoms: _597  and  _598
REMARK  240  A    between atoms: _600  and  _602
REMARK  241  A    between atoms: _602  and  _603
REMARK  242  A    between atoms: _602  and  _605
REMARK  243  A    between atoms: _605  and  _606
REMARK  244  A    between atoms: _616  and  _618
REMARK  245  A    between atoms: _618  and  _619
REMARK  246  A    between atoms: _618  and  _621
REMARK  247  A    between atoms: _621  and  _622
REMARK  248  A    between atoms: _625  and  _627
REMARK  249  A    between atoms: _627  and  _628
REMARK  250  A    between atoms: _631  and  _633
REMARK  251  A    between atoms: _633  and  _634
REMARK  252  A    between atoms: _637  and  _639
REMARK  253  A    between atoms: _639  and  _640
REMARK  254  A    between atoms: _639  and  _642
REMARK  255  A    between atoms: _642  and  _643
REMARK  256  A    between atoms: _647  and  _648
REMARK                            x       y       z     vdW  Elec       q    Type
REMARK                         _______ _______ _______ _____ _____    ______ ____
ROOT
ATOM      1  O   HOH     1      31.295  62.512  28.558  0.00  0.00    +0.000 OA
ENDROOT
TORSDOF 0
REMARK  Name = ../refined-set-2016/4uac/4uac_pocket.pdb
REMARK  256 active torsions:
REMARK  status: ('A' for Active; 'I' for Inactive)
REMARK    1  A    between atoms: _1  and  _3
REMARK    2  A    between atoms: _3  and  _4
REMARK    3  A    between atoms: _7  and  _8
REMARK    4  A    between atoms: _13  and  _15
REMARK    5  A    between atoms: _15  and  _16
REMARK    6  A    between atoms: _19  and  _21
REMARK    7  A    between atoms: _21  and  _22
REMARK    8  A    between atoms: _21  and  _24
REMARK    9  A    between atoms: _24  and  _25
REMARK   10  A    between atoms: _25  and  _26
REMARK   11  A    between atoms: _29  and  _31
REMARK   12  A    between atoms: _31  and  _32
REMARK   13  A    between atoms: _31  and  _34
REMARK   14  A    between atoms: _34  and  _35
REMARK   15  A    between atoms: _38  and  _40
REMARK   16  A    between atoms: _40  and  _41
REMARK   17  A    between atoms: _40  and  _43
REMARK   18  A    between atoms: _43  and  _44
REMARK   19  A    between atoms: _46  and  _48
REMARK   20  A    between atoms: _48  and  _49
REMARK   21  A    between atoms: _48  and  _51
REMARK   22  A    between atoms: _51  and  _52
REMARK   23  A    between atoms: _54  and  _56
REMARK   24  A    between atoms: _56  and  _57
REMARK   25  A    between atoms: _56  and  _59
REMARK   26  A    between atoms: _59  and  _60
REMARK   27  A    between atoms: _60  and  _61
REMARK   28  A    between atoms: _64  and  _66
REMARK   29  A    between atoms: _66  and  _67
REMARK   30  A    between atoms: _66  and  _69
REMARK   31  A    between atoms: _69  and  _70
REMARK   32  A    between atoms: _72  and  _74
REMARK   33  A    between atoms: _74  and  _75
REMARK   34  A    between atoms: _74  and  _77
REMARK   35  A    between atoms: _77  and  _78
REMARK   36  A    between atoms: _81  and  _83
REMARK   37  A    between atoms: _83  and  _84
REMARK   38  A    between atoms: _87  and  _89
REMARK   39  A    between atoms: _89  and  _90
REMARK   40  A    between atoms: _89  and  _92
REMARK   41  A    between atoms: _92  and  _93
REMARK   42  A    between atoms: _93  and  _94
REMARK   43  A    between atoms: _94  and  _95
REMARK   44  A    between atoms: _95  and  _96
REMARK   45  A    between atoms: _100  and  _102
REMARK   46  A    between atoms: _102  and  _103
REMARK   47  A    between atoms: _102  and  _105
REMARK   48  A    between atoms: _105  and  _106
REMARK   49  A    between atoms: _109  and  _111
REMARK   50  A    between atoms: _111  and  _112
REMARK   51  A    between atoms: _111  and  _114
REMARK   52  A    between atoms: _117  and  _119
REMARK   53  A    between atoms: _119  and  _120
REMARK   54  A    between atoms: _119  and  _122
REMARK   55  A    between atoms: _122  and  _123
REMARK   56  A    between atoms: _126  and  _128
REMARK   57  A    between atoms: _128  and  _129
REMARK   58  A    between atoms: _128  and  _131
REMARK   59  A    between atoms: _131  and  _132
REMARK   60  A    between atoms: _132  and  _133
REMARK   61  A    between atoms: _135  and  _137
REMARK   62  A    between atoms: _137  and  _138
REMARK   63  A    between atoms: _137  and  _140
REMARK   64  A    between atoms: _140  and  _141
REMARK   65  A    between atoms: _147  and  _149
REMARK   66  A    between atoms: _149  and  _150
REMARK   67  A    between atoms: _153  and  _155
REMARK   68  A    between atoms: _155  and  _156
REMARK   69  A    between atoms: _155  and  _158
REMARK   70  A    between atoms: _158  and  _159
REMARK   71  A    between atoms: _164  and  _166
REMARK   72  A    between atoms: _166  and  _167
REMARK   73  A    between atoms: _166  and  _169
REMARK   74  A    between atoms: _169  and  _170
REMARK   75  A    between atoms: _173  and  _175
REMARK   76  A    between atoms: _175  and  _176
REMARK   77  A    between atoms: _175  and  _178
REMARK   78  A    between atoms: _178  and  _179
REMARK   79  A    between atoms: _179  and  _180
REMARK   80  A    between atoms: _185  and  _187
REMARK   81  A    between atoms: _187  and  _188
REMARK   82  A    between atoms: _187  and  _190
REMARK   83  A    between atoms: _190  and  _191
REMARK   84  A    between atoms: _195  and  _196
REMARK   85  A    between atoms: _201  and  _203
REMARK   86  A    between atoms: _203  and  _204
REMARK   87  A    between atoms: _203  and  _206
REMARK   88  A    between atoms: _206  and  _207
REMARK   89  A    between atoms: _212  and  _213
REMARK   90  A    between atoms: _215  and  _217
REMARK   91  A    between atoms: _217  and  _218
REMARK   92  A    between atoms: _217  and  _220
REMARK   93  A    between atoms: _220  and  _221
REMARK   94  A    between atoms: _224  and  _226
REMARK   95  A    between atoms: _226  and  _227
REMARK   96  A    between atoms: _226  and  _229
REMARK   97  A    between atoms: _229  and  _230
REMARK   98  A    between atoms: _232  and  _234
REMARK   99  A    between atoms: _234  and  _235
REMARK  100  A    between atoms: _234  and  _237
REMARK  101  A    between atoms: _237  and  _238
REMARK  102  A    between atoms: _243  and  _245
REMARK  103  A    between atoms: _245  and  _246
REMARK  104  A    between atoms: _245  and  _248
REMARK  105  A    between atoms: _248  and  _249
REMARK  106  A    between atoms: _252  and  _254
REMARK  107  A    between atoms: _254  and  _255
REMARK  108  A    between atoms: _254  and  _257
REMARK  109  A    between atoms: _257  and  _258
REMARK  110  A    between atoms: _269  and  _270
REMARK  111  A    between atoms: _275  and  _277
REMARK  112  A    between atoms: _277  and  _278
REMARK  113  A    between atoms: _277  and  _280
REMARK  114  A    between atoms: _280  and  _281
REMARK  115  A    between atoms: _284  and  _286
REMARK  116  A    between atoms: _286  and  _287
REMARK  117  A    between atoms: _286  and  _289
REMARK  118  A    between atoms: _289  and  _290
REMARK  119  A    between atoms: _295  and  _297
REMARK  120  A    between atoms: _297  and  _298
REMARK  121  A    between atoms: _300  and  _302
REMARK  122  A    between atoms: _302  and  _303
REMARK  123  A    between atoms: _302  and  _305
REMARK  124  A    between atoms: _305  and  _306
REMARK  125  A    between atoms: _316  and  _318
REMARK  126  A    between atoms: _318  and  _319
REMARK  127  A    between atoms: _318  and  _321
REMARK  128  A    between atoms: _321  and  _322
REMARK  129  A    between atoms: _327  and  _328
REMARK  130  A    between atoms: _330  and  _332
REMARK  131  A    between atoms: _332  and  _333
REMARK  132  A    between atoms: _332  and  _335
REMARK  133  A    between atoms: _335  and  _336
REMARK  134  A    between atoms: _339  and  _341
REMARK  135  A    between atoms: _341  and  _342
REMARK  136  A    between atoms: _341  and  _344
REMARK  137  A    between atoms: _344  and  _345
REMARK  138  A    between atoms: _350  and  _352
REMARK  139  A    between atoms: _352  and  _353
REMARK  140  A    between atoms: _352  and  _355
REMARK  141  A    between atoms: _355  and  _356
REMARK  142  A    between atoms: _361  and  _363
REMARK  143  A    between atoms: _363  and  _364
REMARK  144  A    between atoms: _363  and  _366
REMARK  145  A    between atoms: _366  and  _367
REMARK  146  A    between atoms: _367  and  _368
REMARK  147  A    between atoms: _371  and  _373
REMARK  148  A    between atoms: _373  and  _374
REMARK  149  A    between atoms: _376  and  _378
REMARK  150  A    between atoms: _378  and  _379
REMARK  151  A    between atoms: _378  and  _381
REMARK  152  A    between atoms: _381  and  _382
REMARK  153  A    between atoms: _384  and  _386
REMARK  154  A    between atoms: _386  and  _387
REMARK  155  A    between atoms: _386  and  _389
REMARK  156  A    between atoms: _389  and  _390
REMARK  157  A    between atoms: _395  and  _396
REMARK  158  A    between atoms: _398  and  _400
REMARK  159  A    between atoms: _400  and  _401
REMARK  160  A    between atoms: _400  and  _403
REMARK  161  A    between atoms: _403  and  _404
REMARK  162  A    between atoms: _409  and  _411
REMARK  163  A    between atoms: _411  and  _412
REMARK  164  A    between atoms: _414  and  _416
REMARK  165  A    between atoms: _416  and  _417
REMARK  166  A    between atoms: _416  and  _419
REMARK  167  A    between atoms: _419  and  _420
REMARK  168  A    between atoms: _425  and  _427
REMARK  169  A    between atoms: _427  and  _428
REMARK  170  A    between atoms: _427  and  _430
REMARK  171  A    between atoms: _430  and  _431
REMARK  172  A    between atoms: _441  and  _443
REMARK  173  A    between atoms: _443  and  _444
REMARK  174  A    between atoms: _443  and  _446
REMARK  175  A    between atoms: _446  and  _447
REMARK  176  A    between atoms: _452  and  _454
REMARK  177  A    between atoms: _454  and  _455
REMARK  178  A    between atoms: _454  and  _457
REMARK  179  A    between atoms: _457  and  _458
REMARK  180  A    between atoms: _458  and  _459
REMARK  181  A    between atoms: _459  and  _460
REMARK  182  A    between atoms: _460  and  _461
REMARK  183  A    between atoms: _465  and  _467
REMARK  184  A    between atoms: _467  and  _468
REMARK  185  A    between atoms: _467  and  _470
REMARK  186  A    between atoms: _470  and  _471
REMARK  187  A    between atoms: _477  and  _479
REMARK  188  A    between atoms: _479  and  _480
REMARK  189  A    between atoms: _482  and  _484
REMARK  190  A    between atoms: _484  and  _485
REMARK  191  A    between atoms: _484  and  _487
REMARK  192  A    between atoms: _487  and  _488
REMARK  193  A    between atoms: _490  and  _492
REMARK  194  A    between atoms: _492  and  _493
REMARK  195  A    between atoms: _492  and  _495
REMARK  196  A    between atoms: _495  and  _496
REMARK  197  A    between atoms: _496  and  _497
REMARK  198  A    between atoms: _497  and  _498
REMARK  199  A    between atoms: _498  and  _499
REMARK  200  A    between atoms: _503  and  _505
REMARK  201  A    between atoms: _505  and  _506
REMARK  202  A    between atoms: _505  and  _508
REMARK  203  A    between atoms: _508  and  _509
REMARK  204  A    between atoms: _514  and  _516
REMARK  205  A    between atoms: _516  and  _517
REMARK  206  A    between atoms: _516  and  _519
REMARK  207  A    between atoms: _519  and  _520
REMARK  208  A    between atoms: _520  and  _521
REMARK  209  A    between atoms: _521  and  _522
REMARK  210  A    between atoms: _531  and  _533
REMARK  211  A    between atoms: _533  and  _534
REMARK  212  A    between atoms: _533  and  _536
REMARK  213  A    between atoms: _536  and  _537
REMARK  214  A    between atoms: _537  and  _538
REMARK  215  A    between atoms: _543  and  _545
REMARK  216  A    between atoms: _545  and  _546
REMARK  217  A    between atoms: _545  and  _548
REMARK  218  A    between atoms: _548  and  _549
REMARK  219  A    between atoms: _549  and  _550
REMARK  220  A    between atoms: _555  and  _557
REMARK  221  A    between atoms: _557  and  _558
REMARK  222  A    between atoms: _557  and  _560
REMARK  223  A    between atoms: _560  and  _561
REMARK  224  A    between atoms: _564  and  _566
REMARK  225  A    between atoms: _566  and  _567
REMARK  226  A    between atoms: _566  and  _569
REMARK  227  A    between atoms: _569  and  _570
REMARK  228  A    between atoms: _570  and  _571
REMARK  229  A    between atoms: _573  and  _575
REMARK  230  A    between atoms: _575  and  _576
REMARK  231  A    between atoms: _575  and  _578
REMARK  232  A    between atoms: _578  and  _579
REMARK  233  A    between atoms: _581  and  _583
REMARK  234  A    between atoms: _583  and  _584
REMARK  235  A    between atoms: _586  and  _588
REMARK  236  A    between atoms: _588  and  _589
REMARK  237  A    between atoms: _588  and  _591
REMARK  238  A    between atoms: _591  and  _592
REMARK  239  A    between atoms: _597  and  _598
REMARK  240  A    between atoms: _600  and  _602
REMARK  241  A    between atoms: _602  and  _603
REMARK  242  A    between atoms: _602  and  _605
REMARK  243  A    between atoms: _605  and  _606
REMARK  244  A    between atoms: _616  and  _618
REMARK  245  A    between atoms: _618  and  _619
REMARK  246  A    between atoms: _618  and  _621
REMARK  247  A    between atoms: _621  and  _622
REMARK  248  A    between atoms: _625  and  _627
REMARK  249  A    between atoms: _627  and  _628
REMARK  250  A    between atoms: _631  and  _633
REMARK  251  A    between atoms: _633  and  _634
REMARK  252  A    between atoms: _637  and  _639
REMARK  253  A    between atoms: _639  and  _640
REMARK  254  A    between atoms: _639  and  _642
REMARK  255  A    between atoms: _642  and  _643
REMARK  256  A    between atoms: _647  and  _648
REMARK                            x       y       z     vdW  Elec       q    Type
REMARK                         _______ _______ _______ _____ _____    ______ ____
ROOT
ATOM      1  O   HOH     1      17.209  60.198  31.903  0.00  0.00    +0.000 OA
ENDROOT
TORSDOF 0
REMARK  Name = ../refined-set-2016/4uac/4uac_pocket.pdb
REMARK  256 active torsions:
REMARK  status: ('A' for Active; 'I' for Inactive)
REMARK    1  A    between atoms: _1  and  _3
REMARK    2  A    between atoms: _3  and  _4
REMARK    3  A    between atoms: _7  and  _8
REMARK    4  A    between atoms: _13  and  _15
REMARK    5  A    between atoms: _15  and  _16
REMARK    6  A    between atoms: _19  and  _21
REMARK    7  A    between atoms: _21  and  _22
REMARK    8  A    between atoms: _21  and  _24
REMARK    9  A    between atoms: _24  and  _25
REMARK   10  A    between atoms: _25  and  _26
REMARK   11  A    between atoms: _29  and  _31
REMARK   12  A    between atoms: _31  and  _32
REMARK   13  A    between atoms: _31  and  _34
REMARK   14  A    between atoms: _34  and  _35
REMARK   15  A    between atoms: _38  and  _40
REMARK   16  A    between atoms: _40  and  _41
REMARK   17  A    between atoms: _40  and  _43
REMARK   18  A    between atoms: _43  and  _44
REMARK   19  A    between atoms: _46  and  _48
REMARK   20  A    between atoms: _48  and  _49
REMARK   21  A    between atoms: _48  and  _51
REMARK   22  A    between atoms: _51  and  _52
REMARK   23  A    between atoms: _54  and  _56
REMARK   24  A    between atoms: _56  and  _57
REMARK   25  A    between atoms: _56  and  _59
REMARK   26  A    between atoms: _59  and  _60
REMARK   27  A    between atoms: _60  and  _61
REMARK   28  A    between atoms: _64  and  _66
REMARK   29  A    between atoms: _66  and  _67
REMARK   30  A    between atoms: _66  and  _69
REMARK   31  A    between atoms: _69  and  _70
REMARK   32  A    between atoms: _72  and  _74
REMARK   33  A    between atoms: _74  and  _75
REMARK   34  A    between atoms: _74  and  _77
REMARK   35  A    between atoms: _77  and  _78
REMARK   36  A    between atoms: _81  and  _83
REMARK   37  A    between atoms: _83  and  _84
REMARK   38  A    between atoms: _87  and  _89
REMARK   39  A    between atoms: _89  and  _90
REMARK   40  A    between atoms: _89  and  _92
REMARK   41  A    between atoms: _92  and  _93
REMARK   42  A    between atoms: _93  and  _94
REMARK   43  A    between atoms: _94  and  _95
REMARK   44  A    between atoms: _95  and  _96
REMARK   45  A    between atoms: _100  and  _102
REMARK   46  A    between atoms: _102  and  _103
REMARK   47  A    between atoms: _102  and  _105
REMARK   48  A    between atoms: _105  and  _106
REMARK   49  A    between atoms: _109  and  _111
REMARK   50  A    between atoms: _111  and  _112
REMARK   51  A    between atoms: _111  and  _114
REMARK   52  A    between atoms: _117  and  _119
REMARK   53  A    between atoms: _119  and  _120
REMARK   54  A    between atoms: _119  and  _122
REMARK   55  A    between atoms: _122  and  _123
REMARK   56  A    between atoms: _126  and  _128
REMARK   57  A    between atoms: _128  and  _129
REMARK   58  A    between atoms: _128  and  _131
REMARK   59  A    between atoms: _131  and  _132
REMARK   60  A    between atoms: _132  and  _133
REMARK   61  A    between atoms: _135  and  _137
REMARK   62  A    between atoms: _137  and  _138
REMARK   63  A    between atoms: _137  and  _140
REMARK   64  A    between atoms: _140  and  _141
REMARK   65  A    between atoms: _147  and  _149
REMARK   66  A    between atoms: _149  and  _150
REMARK   67  A    between atoms: _153  and  _155
REMARK   68  A    between atoms: _155  and  _156
REMARK   69  A    between atoms: _155  and  _158
REMARK   70  A    between atoms: _158  and  _159
REMARK   71  A    between atoms: _164  and  _166
REMARK   72  A    between atoms: _166  and  _167
REMARK   73  A    between atoms: _166  and  _169
REMARK   74  A    between atoms: _169  and  _170
REMARK   75  A    between atoms: _173  and  _175
REMARK   76  A    between atoms: _175  and  _176
REMARK   77  A    between atoms: _175  and  _178
REMARK   78  A    between atoms: _178  and  _179
REMARK   79  A    between atoms: _179  and  _180
REMARK   80  A    between atoms: _185  and  _187
REMARK   81  A    between atoms: _187  and  _188
REMARK   82  A    between atoms: _187  and  _190
REMARK   83  A    between atoms: _190  and  _191
REMARK   84  A    between atoms: _195  and  _196
REMARK   85  A    between atoms: _201  and  _203
REMARK   86  A    between atoms: _203  and  _204
REMARK   87  A    between atoms: _203  and  _206
REMARK   88  A    between atoms: _206  and  _207
REMARK   89  A    between atoms: _212  and  _213
REMARK   90  A    between atoms: _215  and  _217
REMARK   91  A    between atoms: _217  and  _218
REMARK   92  A    between atoms: _217  and  _220
REMARK   93  A    between atoms: _220  and  _221
REMARK   94  A    between atoms: _224  and  _226
REMARK   95  A    between atoms: _226  and  _227
REMARK   96  A    between atoms: _226  and  _229
REMARK   97  A    between atoms: _229  and  _230
REMARK   98  A    between atoms: _232  and  _234
REMARK   99  A    between atoms: _234  and  _235
REMARK  100  A    between atoms: _234  and  _237
REMARK  101  A    between atoms: _237  and  _238
REMARK  102  A    between atoms: _243  and  _245
REMARK  103  A    between atoms: _245  and  _246
REMARK  104  A    between atoms: _245  and  _248
REMARK  105  A    between atoms: _248  and  _249
REMARK  106  A    between atoms: _252  and  _254
REMARK  107  A    between atoms: _254  and  _255
REMARK  108  A    between atoms: _254  and  _257
REMARK  109  A    between atoms: _257  and  _258
REMARK  110  A    between atoms: _269  and  _270
REMARK  111  A    between atoms: _275  and  _277
REMARK  112  A    between atoms: _277  and  _278
REMARK  113  A    between atoms: _277  and  _280
REMARK  114  A    between atoms: _280  and  _281
REMARK  115  A    between atoms: _284  and  _286
REMARK  116  A    between atoms: _286  and  _287
REMARK  117  A    between atoms: _286  and  _289
REMARK  118  A    between atoms: _289  and  _290
REMARK  119  A    between atoms: _295  and  _297
REMARK  120  A    between atoms: _297  and  _298
REMARK  121  A    between atoms: _300  and  _302
REMARK  122  A    between atoms: _302  and  _303
REMARK  123  A    between atoms: _302  and  _305
REMARK  124  A    between atoms: _305  and  _306
REMARK  125  A    between atoms: _316  and  _318
REMARK  126  A    between atoms: _318  and  _319
REMARK  127  A    between atoms: _318  and  _321
REMARK  128  A    between atoms: _321  and  _322
REMARK  129  A    between atoms: _327  and  _328
REMARK  130  A    between atoms: _330  and  _332
REMARK  131  A    between atoms: _332  and  _333
REMARK  132  A    between atoms: _332  and  _335
REMARK  133  A    between atoms: _335  and  _336
REMARK  134  A    between atoms: _339  and  _341
REMARK  135  A    between atoms: _341  and  _342
REMARK  136  A    between atoms: _341  and  _344
REMARK  137  A    between atoms: _344  and  _345
REMARK  138  A    between atoms: _350  and  _352
REMARK  139  A    between atoms: _352  and  _353
REMARK  140  A    between atoms: _352  and  _355
REMARK  141  A    between atoms: _355  and  _356
REMARK  142  A    between atoms: _361  and  _363
REMARK  143  A    between atoms: _363  and  _364
REMARK  144  A    between atoms: _363  and  _366
REMARK  145  A    between atoms: _366  and  _367
REMARK  146  A    between atoms: _367  and  _368
REMARK  147  A    between atoms: _371  and  _373
REMARK  148  A    between atoms: _373  and  _374
REMARK  149  A    between atoms: _376  and  _378
REMARK  150  A    between atoms: _378  and  _379
REMARK  151  A    between atoms: _378  and  _381
REMARK  152  A    between atoms: _381  and  _382
REMARK  153  A    between atoms: _384  and  _386
REMARK  154  A    between atoms: _386  and  _387
REMARK  155  A    between atoms: _386  and  _389
REMARK  156  A    between atoms: _389  and  _390
REMARK  157  A    between atoms: _395  and  _396
REMARK  158  A    between atoms: _398  and  _400
REMARK  159  A    between atoms: _400  and  _401
REMARK  160  A    between atoms: _400  and  _403
REMARK  161  A    between atoms: _403  and  _404
REMARK  162  A    between atoms: _409  and  _411
REMARK  163  A    between atoms: _411  and  _412
REMARK  164  A    between atoms: _414  and  _416
REMARK  165  A    between atoms: _416  and  _417
REMARK  166  A    between atoms: _416  and  _419
REMARK  167  A    between atoms: _419  and  _420
REMARK  168  A    between atoms: _425  and  _427
REMARK  169  A    between atoms: _427  and  _428
REMARK  170  A    between atoms: _427  and  _430
REMARK  171  A    between atoms: _430  and  _431
REMARK  172  A    between atoms: _441  and  _443
REMARK  173  A    between atoms: _443  and  _444
REMARK  174  A    between atoms: _443  and  _446
REMARK  175  A    between atoms: _446  and  _447
REMARK  176  A    between atoms: _452  and  _454
REMARK  177  A    between atoms: _454  and  _455
REMARK  178  A    between atoms: _454  and  _457
REMARK  179  A    between atoms: _457  and  _458
REMARK  180  A    between atoms: _458  and  _459
REMARK  181  A    between atoms: _459  and  _460
REMARK  182  A    between atoms: _460  and  _461
REMARK  183  A    between atoms: _465  and  _467
REMARK  184  A    between atoms: _467  and  _468
REMARK  185  A    between atoms: _467  and  _470
REMARK  186  A    between atoms: _470  and  _471
REMARK  187  A    between atoms: _477  and  _479
REMARK  188  A    between atoms: _479  and  _480
REMARK  189  A    between atoms: _482  and  _484
REMARK  190  A    between atoms: _484  and  _485
REMARK  191  A    between atoms: _484  and  _487
REMARK  192  A    between atoms: _487  and  _488
REMARK  193  A    between atoms: _490  and  _492
REMARK  194  A    between atoms: _492  and  _493
REMARK  195  A    between atoms: _492  and  _495
REMARK  196  A    between atoms: _495  and  _496
REMARK  197  A    between atoms: _496  and  _497
REMARK  198  A    between atoms: _497  and  _498
REMARK  199  A    between atoms: _498  and  _499
REMARK  200  A    between atoms: _503  and  _505
REMARK  201  A    between atoms: _505  and  _506
REMARK  202  A    between atoms: _505  and  _508
REMARK  203  A    between atoms: _508  and  _509
REMARK  204  A    between atoms: _514  and  _516
REMARK  205  A    between atoms: _516  and  _517
REMARK  206  A    between atoms: _516  and  _519
REMARK  207  A    between atoms: _519  and  _520
REMARK  208  A    between atoms: _520  and  _521
REMARK  209  A    between atoms: _521  and  _522
REMARK  210  A    between atoms: _531  and  _533
REMARK  211  A    between atoms: _533  and  _534
REMARK  212  A    between atoms: _533  and  _536
REMARK  213  A    between atoms: _536  and  _537
REMARK  214  A    between atoms: _537  and  _538
REMARK  215  A    between atoms: _543  and  _545
REMARK  216  A    between atoms: _545  and  _546
REMARK  217  A    between atoms: _545  and  _548
REMARK  218  A    between atoms: _548  and  _549
REMARK  219  A    between atoms: _549  and  _550
REMARK  220  A    between atoms: _555  and  _557
REMARK  221  A    between atoms: _557  and  _558
REMARK  222  A    between atoms: _557  and  _560
REMARK  223  A    between atoms: _560  and  _561
REMARK  224  A    between atoms: _564  and  _566
REMARK  225  A    between atoms: _566  and  _567
REMARK  226  A    between atoms: _566  and  _569
REMARK  227  A    between atoms: _569  and  _570
REMARK  228  A    between atoms: _570  and  _571
REMARK  229  A    between atoms: _573  and  _575
REMARK  230  A    between atoms: _575  and  _576
REMARK  231  A    between atoms: _575  and  _578
REMARK  232  A    between atoms: _578  and  _579
REMARK  233  A    between atoms: _581  and  _583
REMARK  234  A    between atoms: _583  and  _584
REMARK  235  A    between atoms: _586  and  _588
REMARK  236  A    between atoms: _588  and  _589
REMARK  237  A    between atoms: _588  and  _591
REMARK  238  A    between atoms: _591  and  _592
REMARK  239  A    between atoms: _597  and  _598
REMARK  240  A    between atoms: _600  and  _602
REMARK  241  A    between atoms: _602  and  _603
REMARK  242  A    between atoms: _602  and  _605
REMARK  243  A    between atoms: _605  and  _606
REMARK  244  A    between atoms: _616  and  _618
REMARK  245  A    between atoms: _618  and  _619
REMARK  246  A    between atoms: _618  and  _621
REMARK  247  A    between atoms: _621  and  _622
REMARK  248  A    between atoms: _625  and  _627
REMARK  249  A    between atoms: _627  and  _628
REMARK  250  A    between atoms: _631  and  _633
REMARK  251  A    between atoms: _633  and  _634
REMARK  252  A    between atoms: _637  and  _639
REMARK  253  A    between atoms: _639  and  _640
REMARK  254  A    between atoms: _639  and  _642
REMARK  255  A    between atoms: _642  and  _643
REMARK  256  A    between atoms: _647  and  _648
REMARK                            x       y       z     vdW  Elec       q    Type
REMARK                         _______ _______ _______ _____ _____    ______ ____
ROOT
ATOM      1  O   HOH     1      22.091  70.904  34.246  0.00  0.00    +0.000 OA
ENDROOT
TORSDOF 0
REMARK  Name = ../refined-set-2016/4uac/4uac_pocket.pdb
REMARK  256 active torsions:
REMARK  status: ('A' for Active; 'I' for Inactive)
REMARK    1  A    between atoms: _1  and  _3
REMARK    2  A    between atoms: _3  and  _4
REMARK    3  A    between atoms: _7  and  _8
REMARK    4  A    between atoms: _13  and  _15
REMARK    5  A    between atoms: _15  and  _16
REMARK    6  A    between atoms: _19  and  _21
REMARK    7  A    between atoms: _21  and  _22
REMARK    8  A    between atoms: _21  and  _24
REMARK    9  A    between atoms: _24  and  _25
REMARK   10  A    between atoms: _25  and  _26
REMARK   11  A    between atoms: _29  and  _31
REMARK   12  A    between atoms: _31  and  _32
REMARK   13  A    between atoms: _31  and  _34
REMARK   14  A    between atoms: _34  and  _35
REMARK   15  A    between atoms: _38  and  _40
REMARK   16  A    between atoms: _40  and  _41
REMARK   17  A    between atoms: _40  and  _43
REMARK   18  A    between atoms: _43  and  _44
REMARK   19  A    between atoms: _46  and  _48
REMARK   20  A    between atoms: _48  and  _49
REMARK   21  A    between atoms: _48  and  _51
REMARK   22  A    between atoms: _51  and  _52
REMARK   23  A    between atoms: _54  and  _56
REMARK   24  A    between atoms: _56  and  _57
REMARK   25  A    between atoms: _56  and  _59
REMARK   26  A    between atoms: _59  and  _60
REMARK   27  A    between atoms: _60  and  _61
REMARK   28  A    between atoms: _64  and  _66
REMARK   29  A    between atoms: _66  and  _67
REMARK   30  A    between atoms: _66  and  _69
REMARK   31  A    between atoms: _69  and  _70
REMARK   32  A    between atoms: _72  and  _74
REMARK   33  A    between atoms: _74  and  _75
REMARK   34  A    between atoms: _74  and  _77
REMARK   35  A    between atoms: _77  and  _78
REMARK   36  A    between atoms: _81  and  _83
REMARK   37  A    between atoms: _83  and  _84
REMARK   38  A    between atoms: _87  and  _89
REMARK   39  A    between atoms: _89  and  _90
REMARK   40  A    between atoms: _89  and  _92
REMARK   41  A    between atoms: _92  and  _93
REMARK   42  A    between atoms: _93  and  _94
REMARK   43  A    between atoms: _94  and  _95
REMARK   44  A    between atoms: _95  and  _96
REMARK   45  A    between atoms: _100  and  _102
REMARK   46  A    between atoms: _102  and  _103
REMARK   47  A    between atoms: _102  and  _105
REMARK   48  A    between atoms: _105  and  _106
REMARK   49  A    between atoms: _109  and  _111
REMARK   50  A    between atoms: _111  and  _112
REMARK   51  A    between atoms: _111  and  _114
REMARK   52  A    between atoms: _117  and  _119
REMARK   53  A    between atoms: _119  and  _120
REMARK   54  A    between atoms: _119  and  _122
REMARK   55  A    between atoms: _122  and  _123
REMARK   56  A    between atoms: _126  and  _128
REMARK   57  A    between atoms: _128  and  _129
REMARK   58  A    between atoms: _128  and  _131
REMARK   59  A    between atoms: _131  and  _132
REMARK   60  A    between atoms: _132  and  _133
REMARK   61  A    between atoms: _135  and  _137
REMARK   62  A    between atoms: _137  and  _138
REMARK   63  A    between atoms: _137  and  _140
REMARK   64  A    between atoms: _140  and  _141
REMARK   65  A    between atoms: _147  and  _149
REMARK   66  A    between atoms: _149  and  _150
REMARK   67  A    between atoms: _153  and  _155
REMARK   68  A    between atoms: _155  and  _156
REMARK   69  A    between atoms: _155  and  _158
REMARK   70  A    between atoms: _158  and  _159
REMARK   71  A    between atoms: _164  and  _166
REMARK   72  A    between atoms: _166  and  _167
REMARK   73  A    between atoms: _166  and  _169
REMARK   74  A    between atoms: _169  and  _170
REMARK   75  A    between atoms: _173  and  _175
REMARK   76  A    between atoms: _175  and  _176
REMARK   77  A    between atoms: _175  and  _178
REMARK   78  A    between atoms: _178  and  _179
REMARK   79  A    between atoms: _179  and  _180
REMARK   80  A    between atoms: _185  and  _187
REMARK   81  A    between atoms: _187  and  _188
REMARK   82  A    between atoms: _187  and  _190
REMARK   83  A    between atoms: _190  and  _191
REMARK   84  A    between atoms: _195  and  _196
REMARK   85  A    between atoms: _201  and  _203
REMARK   86  A    between atoms: _203  and  _204
REMARK   87  A    between atoms: _203  and  _206
REMARK   88  A    between atoms: _206  and  _207
REMARK   89  A    between atoms: _212  and  _213
REMARK   90  A    between atoms: _215  and  _217
REMARK   91  A    between atoms: _217  and  _218
REMARK   92  A    between atoms: _217  and  _220
REMARK   93  A    between atoms: _220  and  _221
REMARK   94  A    between atoms: _224  and  _226
REMARK   95  A    between atoms: _226  and  _227
REMARK   96  A    between atoms: _226  and  _229
REMARK   97  A    between atoms: _229  and  _230
REMARK   98  A    between atoms: _232  and  _234
REMARK   99  A    between atoms: _234  and  _235
REMARK  100  A    between atoms: _234  and  _237
REMARK  101  A    between atoms: _237  and  _238
REMARK  102  A    between atoms: _243  and  _245
REMARK  103  A    between atoms: _245  and  _246
REMARK  104  A    between atoms: _245  and  _248
REMARK  105  A    between atoms: _248  and  _249
REMARK  106  A    between atoms: _252  and  _254
REMARK  107  A    between atoms: _254  and  _255
REMARK  108  A    between atoms: _254  and  _257
REMARK  109  A    between atoms: _257  and  _258
REMARK  110  A    between atoms: _269  and  _270
REMARK  111  A    between atoms: _275  and  _277
REMARK  112  A    between atoms: _277  and  _278
REMARK  113  A    between atoms: _277  and  _280
REMARK  114  A    between atoms: _280  and  _281
REMARK  115  A    between atoms: _284  and  _286
REMARK  116  A    between atoms: _286  and  _287
REMARK  117  A    between atoms: _286  and  _289
REMARK  118  A    between atoms: _289  and  _290
REMARK  119  A    between atoms: _295  and  _297
REMARK  120  A    between atoms: _297  and  _298
REMARK  121  A    between atoms: _300  and  _302
REMARK  122  A    between atoms: _302  and  _303
REMARK  123  A    between atoms: _302  and  _305
REMARK  124  A    between atoms: _305  and  _306
REMARK  125  A    between atoms: _316  and  _318
REMARK  126  A    between atoms: _318  and  _319
REMARK  127  A    between atoms: _318  and  _321
REMARK  128  A    between atoms: _321  and  _322
REMARK  129  A    between atoms: _327  and  _328
REMARK  130  A    between atoms: _330  and  _332
REMARK  131  A    between atoms: _332  and  _333
REMARK  132  A    between atoms: _332  and  _335
REMARK  133  A    between atoms: _335  and  _336
REMARK  134  A    between atoms: _339  and  _341
REMARK  135  A    between atoms: _341  and  _342
REMARK  136  A    between atoms: _341  and  _344
REMARK  137  A    between atoms: _344  and  _345
REMARK  138  A    between atoms: _350  and  _352
REMARK  139  A    between atoms: _352  and  _353
REMARK  140  A    between atoms: _352  and  _355
REMARK  141  A    between atoms: _355  and  _356
REMARK  142  A    between atoms: _361  and  _363
REMARK  143  A    between atoms: _363  and  _364
REMARK  144  A    between atoms: _363  and  _366
REMARK  145  A    between atoms: _366  and  _367
REMARK  146  A    between atoms: _367  and  _368
REMARK  147  A    between atoms: _371  and  _373
REMARK  148  A    between atoms: _373  and  _374
REMARK  149  A    between atoms: _376  and  _378
REMARK  150  A    between atoms: _378  and  _379
REMARK  151  A    between atoms: _378  and  _381
REMARK  152  A    between atoms: _381  and  _382
REMARK  153  A    between atoms: _384  and  _386
REMARK  154  A    between atoms: _386  and  _387
REMARK  155  A    between atoms: _386  and  _389
REMARK  156  A    between atoms: _389  and  _390
REMARK  157  A    between atoms: _395  and  _396
REMARK  158  A    between atoms: _398  and  _400
REMARK  159  A    between atoms: _400  and  _401
REMARK  160  A    between atoms: _400  and  _403
REMARK  161  A    between atoms: _403  and  _404
REMARK  162  A    between atoms: _409  and  _411
REMARK  163  A    between atoms: _411  and  _412
REMARK  164  A    between atoms: _414  and  _416
REMARK  165  A    between atoms: _416  and  _417
REMARK  166  A    between atoms: _416  and  _419
REMARK  167  A    between atoms: _419  and  _420
REMARK  168  A    between atoms: _425  and  _427
REMARK  169  A    between atoms: _427  and  _428
REMARK  170  A    between atoms: _427  and  _430
REMARK  171  A    between atoms: _430  and  _431
REMARK  172  A    between atoms: _441  and  _443
REMARK  173  A    between atoms: _443  and  _444
REMARK  174  A    between atoms: _443  and  _446
REMARK  175  A    between atoms: _446  and  _447
REMARK  176  A    between atoms: _452  and  _454
REMARK  177  A    between atoms: _454  and  _455
REMARK  178  A    between atoms: _454  and  _457
REMARK  179  A    between atoms: _457  and  _458
REMARK  180  A    between atoms: _458  and  _459
REMARK  181  A    between atoms: _459  and  _460
REMARK  182  A    between atoms: _460  and  _461
REMARK  183  A    between atoms: _465  and  _467
REMARK  184  A    between atoms: _467  and  _468
REMARK  185  A    between atoms: _467  and  _470
REMARK  186  A    between atoms: _470  and  _471
REMARK  187  A    between atoms: _477  and  _479
REMARK  188  A    between atoms: _479  and  _480
REMARK  189  A    between atoms: _482  and  _484
REMARK  190  A    between atoms: _484  and  _485
REMARK  191  A    between atoms: _484  and  _487
REMARK  192  A    between atoms: _487  and  _488
REMARK  193  A    between atoms: _490  and  _492
REMARK  194  A    between atoms: _492  and  _493
REMARK  195  A    between atoms: _492  and  _495
REMARK  196  A    between atoms: _495  and  _496
REMARK  197  A    between atoms: _496  and  _497
REMARK  198  A    between atoms: _497  and  _498
REMARK  199  A    between atoms: _498  and  _499
REMARK  200  A    between atoms: _503  and  _505
REMARK  201  A    between atoms: _505  and  _506
REMARK  202  A    between atoms: _505  and  _508
REMARK  203  A    between atoms: _508  and  _509
REMARK  204  A    between atoms: _514  and  _516
REMARK  205  A    between atoms: _516  and  _517
REMARK  206  A    between atoms: _516  and  _519
REMARK  207  A    between atoms: _519  and  _520
REMARK  208  A    between atoms: _520  and  _521
REMARK  209  A    between atoms: _521  and  _522
REMARK  210  A    between atoms: _531  and  _533
REMARK  211  A    between atoms: _533  and  _534
REMARK  212  A    between atoms: _533  and  _536
REMARK  213  A    between atoms: _536  and  _537
REMARK  214  A    between atoms: _537  and  _538
REMARK  215  A    between atoms: _543  and  _545
REMARK  216  A    between atoms: _545  and  _546
REMARK  217  A    between atoms: _545  and  _548
REMARK  218  A    between atoms: _548  and  _549
REMARK  219  A    between atoms: _549  and  _550
REMARK  220  A    between atoms: _555  and  _557
REMARK  221  A    between atoms: _557  and  _558
REMARK  222  A    between atoms: _557  and  _560
REMARK  223  A    between atoms: _560  and  _561
REMARK  224  A    between atoms: _564  and  _566
REMARK  225  A    between atoms: _566  and  _567
REMARK  226  A    between atoms: _566  and  _569
REMARK  227  A    between atoms: _569  and  _570
REMARK  228  A    between atoms: _570  and  _571
REMARK  229  A    between atoms: _573  and  _575
REMARK  230  A    between atoms: _575  and  _576
REMARK  231  A    between atoms: _575  and  _578
REMARK  232  A    between atoms: _578  and  _579
REMARK  233  A    between atoms: _581  and  _583
REMARK  234  A    between atoms: _583  and  _584
REMARK  235  A    between atoms: _586  and  _588
REMARK  236  A    between atoms: _588  and  _589
REMARK  237  A    between atoms: _588  and  _591
REMARK  238  A    between atoms: _591  and  _592
REMARK  239  A    between atoms: _597  and  _598
REMARK  240  A    between atoms: _600  and  _602
REMARK  241  A    between atoms: _602  and  _603
REMARK  242  A    between atoms: _602  and  _605
REMARK  243  A    between atoms: _605  and  _606
REMARK  244  A    between atoms: _616  and  _618
REMARK  245  A    between atoms: _618  and  _619
REMARK  246  A    between atoms: _618  and  _621
REMARK  247  A    between atoms: _621  and  _622
REMARK  248  A    between atoms: _625  and  _627
REMARK  249  A    between atoms: _627  and  _628
REMARK  250  A    between atoms: _631  and  _633
REMARK  251  A    between atoms: _633  and  _634
REMARK  252  A    between atoms: _637  and  _639
REMARK  253  A    between atoms: _639  and  _640
REMARK  254  A    between atoms: _639  and  _642
REMARK  255  A    between atoms: _642  and  _643
REMARK  256  A    between atoms: _647  and  _648
REMARK                            x       y       z     vdW  Elec       q    Type
REMARK                         _______ _______ _______ _____ _____    ______ ____
ROOT
ATOM      1  O   HOH     1      26.732  65.989  33.417  0.00  0.00    +0.000 OA
ENDROOT
TORSDOF 0
REMARK  Name = ../refined-set-2016/4uac/4uac_pocket.pdb
REMARK  256 active torsions:
REMARK  status: ('A' for Active; 'I' for Inactive)
REMARK    1  A    between atoms: _1  and  _3
REMARK    2  A    between atoms: _3  and  _4
REMARK    3  A    between atoms: _7  and  _8
REMARK    4  A    between atoms: _13  and  _15
REMARK    5  A    between atoms: _15  and  _16
REMARK    6  A    between atoms: _19  and  _21
REMARK    7  A    between atoms: _21  and  _22
REMARK    8  A    between atoms: _21  and  _24
REMARK    9  A    between atoms: _24  and  _25
REMARK   10  A    between atoms: _25  and  _26
REMARK   11  A    between atoms: _29  and  _31
REMARK   12  A    between atoms: _31  and  _32
REMARK   13  A    between atoms: _31  and  _34
REMARK   14  A    between atoms: _34  and  _35
REMARK   15  A    between atoms: _38  and  _40
REMARK   16  A    between atoms: _40  and  _41
REMARK   17  A    between atoms: _40  and  _43
REMARK   18  A    between atoms: _43  and  _44
REMARK   19  A    between atoms: _46  and  _48
REMARK   20  A    between atoms: _48  and  _49
REMARK   21  A    between atoms: _48  and  _51
REMARK   22  A    between atoms: _51  and  _52
REMARK   23  A    between atoms: _54  and  _56
REMARK   24  A    between atoms: _56  and  _57
REMARK   25  A    between atoms: _56  and  _59
REMARK   26  A    between atoms: _59  and  _60
REMARK   27  A    between atoms: _60  and  _61
REMARK   28  A    between atoms: _64  and  _66
REMARK   29  A    between atoms: _66  and  _67
REMARK   30  A    between atoms: _66  and  _69
REMARK   31  A    between atoms: _69  and  _70
REMARK   32  A    between atoms: _72  and  _74
REMARK   33  A    between atoms: _74  and  _75
REMARK   34  A    between atoms: _74  and  _77
REMARK   35  A    between atoms: _77  and  _78
REMARK   36  A    between atoms: _81  and  _83
REMARK   37  A    between atoms: _83  and  _84
REMARK   38  A    between atoms: _87  and  _89
REMARK   39  A    between atoms: _89  and  _90
REMARK   40  A    between atoms: _89  and  _92
REMARK   41  A    between atoms: _92  and  _93
REMARK   42  A    between atoms: _93  and  _94
REMARK   43  A    between atoms: _94  and  _95
REMARK   44  A    between atoms: _95  and  _96
REMARK   45  A    between atoms: _100  and  _102
REMARK   46  A    between atoms: _102  and  _103
REMARK   47  A    between atoms: _102  and  _105
REMARK   48  A    between atoms: _105  and  _106
REMARK   49  A    between atoms: _109  and  _111
REMARK   50  A    between atoms: _111  and  _112
REMARK   51  A    between atoms: _111  and  _114
REMARK   52  A    between atoms: _117  and  _119
REMARK   53  A    between atoms: _119  and  _120
REMARK   54  A    between atoms: _119  and  _122
REMARK   55  A    between atoms: _122  and  _123
REMARK   56  A    between atoms: _126  and  _128
REMARK   57  A    between atoms: _128  and  _129
REMARK   58  A    between atoms: _128  and  _131
REMARK   59  A    between atoms: _131  and  _132
REMARK   60  A    between atoms: _132  and  _133
REMARK   61  A    between atoms: _135  and  _137
REMARK   62  A    between atoms: _137  and  _138
REMARK   63  A    between atoms: _137  and  _140
REMARK   64  A    between atoms: _140  and  _141
REMARK   65  A    between atoms: _147  and  _149
REMARK   66  A    between atoms: _149  and  _150
REMARK   67  A    between atoms: _153  and  _155
REMARK   68  A    between atoms: _155  and  _156
REMARK   69  A    between atoms: _155  and  _158
REMARK   70  A    between atoms: _158  and  _159
REMARK   71  A    between atoms: _164  and  _166
REMARK   72  A    between atoms: _166  and  _167
REMARK   73  A    between atoms: _166  and  _169
REMARK   74  A    between atoms: _169  and  _170
REMARK   75  A    between atoms: _173  and  _175
REMARK   76  A    between atoms: _175  and  _176
REMARK   77  A    between atoms: _175  and  _178
REMARK   78  A    between atoms: _178  and  _179
REMARK   79  A    between atoms: _179  and  _180
REMARK   80  A    between atoms: _185  and  _187
REMARK   81  A    between atoms: _187  and  _188
REMARK   82  A    between atoms: _187  and  _190
REMARK   83  A    between atoms: _190  and  _191
REMARK   84  A    between atoms: _195  and  _196
REMARK   85  A    between atoms: _201  and  _203
REMARK   86  A    between atoms: _203  and  _204
REMARK   87  A    between atoms: _203  and  _206
REMARK   88  A    between atoms: _206  and  _207
REMARK   89  A    between atoms: _212  and  _213
REMARK   90  A    between atoms: _215  and  _217
REMARK   91  A    between atoms: _217  and  _218
REMARK   92  A    between atoms: _217  and  _220
REMARK   93  A    between atoms: _220  and  _221
REMARK   94  A    between atoms: _224  and  _226
REMARK   95  A    between atoms: _226  and  _227
REMARK   96  A    between atoms: _226  and  _229
REMARK   97  A    between atoms: _229  and  _230
REMARK   98  A    between atoms: _232  and  _234
REMARK   99  A    between atoms: _234  and  _235
REMARK  100  A    between atoms: _234  and  _237
REMARK  101  A    between atoms: _237  and  _238
REMARK  102  A    between atoms: _243  and  _245
REMARK  103  A    between atoms: _245  and  _246
REMARK  104  A    between atoms: _245  and  _248
REMARK  105  A    between atoms: _248  and  _249
REMARK  106  A    between atoms: _252  and  _254
REMARK  107  A    between atoms: _254  and  _255
REMARK  108  A    between atoms: _254  and  _257
REMARK  109  A    between atoms: _257  and  _258
REMARK  110  A    between atoms: _269  and  _270
REMARK  111  A    between atoms: _275  and  _277
REMARK  112  A    between atoms: _277  and  _278
REMARK  113  A    between atoms: _277  and  _280
REMARK  114  A    between atoms: _280  and  _281
REMARK  115  A    between atoms: _284  and  _286
REMARK  116  A    between atoms: _286  and  _287
REMARK  117  A    between atoms: _286  and  _289
REMARK  118  A    between atoms: _289  and  _290
REMARK  119  A    between atoms: _295  and  _297
REMARK  120  A    between atoms: _297  and  _298
REMARK  121  A    between atoms: _300  and  _302
REMARK  122  A    between atoms: _302  and  _303
REMARK  123  A    between atoms: _302  and  _305
REMARK  124  A    between atoms: _305  and  _306
REMARK  125  A    between atoms: _316  and  _318
REMARK  126  A    between atoms: _318  and  _319
REMARK  127  A    between atoms: _318  and  _321
REMARK  128  A    between atoms: _321  and  _322
REMARK  129  A    between atoms: _327  and  _328
REMARK  130  A    between atoms: _330  and  _332
REMARK  131  A    between atoms: _332  and  _333
REMARK  132  A    between atoms: _332  and  _335
REMARK  133  A    between atoms: _335  and  _336
REMARK  134  A    between atoms: _339  and  _341
REMARK  135  A    between atoms: _341  and  _342
REMARK  136  A    between atoms: _341  and  _344
REMARK  137  A    between atoms: _344  and  _345
REMARK  138  A    between atoms: _350  and  _352
REMARK  139  A    between atoms: _352  and  _353
REMARK  140  A    between atoms: _352  and  _355
REMARK  141  A    between atoms: _355  and  _356
REMARK  142  A    between atoms: _361  and  _363
REMARK  143  A    between atoms: _363  and  _364
REMARK  144  A    between atoms: _363  and  _366
REMARK  145  A    between atoms: _366  and  _367
REMARK  146  A    between atoms: _367  and  _368
REMARK  147  A    between atoms: _371  and  _373
REMARK  148  A    between atoms: _373  and  _374
REMARK  149  A    between atoms: _376  and  _378
REMARK  150  A    between atoms: _378  and  _379
REMARK  151  A    between atoms: _378  and  _381
REMARK  152  A    between atoms: _381  and  _382
REMARK  153  A    between atoms: _384  and  _386
REMARK  154  A    between atoms: _386  and  _387
REMARK  155  A    between atoms: _386  and  _389
REMARK  156  A    between atoms: _389  and  _390
REMARK  157  A    between atoms: _395  and  _396
REMARK  158  A    between atoms: _398  and  _400
REMARK  159  A    between atoms: _400  and  _401
REMARK  160  A    between atoms: _400  and  _403
REMARK  161  A    between atoms: _403  and  _404
REMARK  162  A    between atoms: _409  and  _411
REMARK  163  A    between atoms: _411  and  _412
REMARK  164  A    between atoms: _414  and  _416
REMARK  165  A    between atoms: _416  and  _417
REMARK  166  A    between atoms: _416  and  _419
REMARK  167  A    between atoms: _419  and  _420
REMARK  168  A    between atoms: _425  and  _427
REMARK  169  A    between atoms: _427  and  _428
REMARK  170  A    between atoms: _427  and  _430
REMARK  171  A    between atoms: _430  and  _431
REMARK  172  A    between atoms: _441  and  _443
REMARK  173  A    between atoms: _443  and  _444
REMARK  174  A    between atoms: _443  and  _446
REMARK  175  A    between atoms: _446  and  _447
REMARK  176  A    between atoms: _452  and  _454
REMARK  177  A    between atoms: _454  and  _455
REMARK  178  A    between atoms: _454  and  _457
REMARK  179  A    between atoms: _457  and  _458
REMARK  180  A    between atoms: _458  and  _459
REMARK  181  A    between atoms: _459  and  _460
REMARK  182  A    between atoms: _460  and  _461
REMARK  183  A    between atoms: _465  and  _467
REMARK  184  A    between atoms: _467  and  _468
REMARK  185  A    between atoms: _467  and  _470
REMARK  186  A    between atoms: _470  and  _471
REMARK  187  A    between atoms: _477  and  _479
REMARK  188  A    between atoms: _479  and  _480
REMARK  189  A    between atoms: _482  and  _484
REMARK  190  A    between atoms: _484  and  _485
REMARK  191  A    between atoms: _484  and  _487
REMARK  192  A    between atoms: _487  and  _488
REMARK  193  A    between atoms: _490  and  _492
REMARK  194  A    between atoms: _492  and  _493
REMARK  195  A    between atoms: _492  and  _495
REMARK  196  A    between atoms: _495  and  _496
REMARK  197  A    between atoms: _496  and  _497
REMARK  198  A    between atoms: _497  and  _498
REMARK  199  A    between atoms: _498  and  _499
REMARK  200  A    between atoms: _503  and  _505
REMARK  201  A    between atoms: _505  and  _506
REMARK  202  A    between atoms: _505  and  _508
REMARK  203  A    between atoms: _508  and  _509
REMARK  204  A    between atoms: _514  and  _516
REMARK  205  A    between atoms: _516  and  _517
REMARK  206  A    between atoms: _516  and  _519
REMARK  207  A    between atoms: _519  and  _520
REMARK  208  A    between atoms: _520  and  _521
REMARK  209  A    between atoms: _521  and  _522
REMARK  210  A    between atoms: _531  and  _533
REMARK  211  A    between atoms: _533  and  _534
REMARK  212  A    between atoms: _533  and  _536
REMARK  213  A    between atoms: _536  and  _537
REMARK  214  A    between atoms: _537  and  _538
REMARK  215  A    between atoms: _543  and  _545
REMARK  216  A    between atoms: _545  and  _546
REMARK  217  A    between atoms: _545  and  _548
REMARK  218  A    between atoms: _548  and  _549
REMARK  219  A    between atoms: _549  and  _550
REMARK  220  A    between atoms: _555  and  _557
REMARK  221  A    between atoms: _557  and  _558
REMARK  222  A    between atoms: _557  and  _560
REMARK  223  A    between atoms: _560  and  _561
REMARK  224  A    between atoms: _564  and  _566
REMARK  225  A    between atoms: _566  and  _567
REMARK  226  A    between atoms: _566  and  _569
REMARK  227  A    between atoms: _569  and  _570
REMARK  228  A    between atoms: _570  and  _571
REMARK  229  A    between atoms: _573  and  _575
REMARK  230  A    between atoms: _575  and  _576
REMARK  231  A    between atoms: _575  and  _578
REMARK  232  A    between atoms: _578  and  _579
REMARK  233  A    between atoms: _581  and  _583
REMARK  234  A    between atoms: _583  and  _584
REMARK  235  A    between atoms: _586  and  _588
REMARK  236  A    between atoms: _588  and  _589
REMARK  237  A    between atoms: _588  and  _591
REMARK  238  A    between atoms: _591  and  _592
REMARK  239  A    between atoms: _597  and  _598
REMARK  240  A    between atoms: _600  and  _602
REMARK  241  A    between atoms: _602  and  _603
REMARK  242  A    between atoms: _602  and  _605
REMARK  243  A    between atoms: _605  and  _606
REMARK  244  A    between atoms: _616  and  _618
REMARK  245  A    between atoms: _618  and  _619
REMARK  246  A    between atoms: _618  and  _621
REMARK  247  A    between atoms: _621  and  _622
REMARK  248  A    between atoms: _625  and  _627
REMARK  249  A    between atoms: _627  and  _628
REMARK  250  A    between atoms: _631  and  _633
REMARK  251  A    between atoms: _633  and  _634
REMARK  252  A    between atoms: _637  and  _639
REMARK  253  A    between atoms: _639  and  _640
REMARK  254  A    between atoms: _639  and  _642
REMARK  255  A    between atoms: _642  and  _643
REMARK  256  A    between atoms: _647  and  _648
REMARK                            x       y       z     vdW  Elec       q    Type
REMARK                         _______ _______ _______ _____ _____    ______ ____
ROOT
ATOM      1  O   HOH     1      33.640  62.159  30.100  0.00  0.00    +0.000 OA
ENDROOT
TORSDOF 0
REMARK  Name = ../refined-set-2016/4uac/4uac_pocket.pdb
REMARK  256 active torsions:
REMARK  status: ('A' for Active; 'I' for Inactive)
REMARK    1  A    between atoms: _1  and  _3
REMARK    2  A    between atoms: _3  and  _4
REMARK    3  A    between atoms: _7  and  _8
REMARK    4  A    between atoms: _13  and  _15
REMARK    5  A    between atoms: _15  and  _16
REMARK    6  A    between atoms: _19  and  _21
REMARK    7  A    between atoms: _21  and  _22
REMARK    8  A    between atoms: _21  and  _24
REMARK    9  A    between atoms: _24  and  _25
REMARK   10  A    between atoms: _25  and  _26
REMARK   11  A    between atoms: _29  and  _31
REMARK   12  A    between atoms: _31  and  _32
REMARK   13  A    between atoms: _31  and  _34
REMARK   14  A    between atoms: _34  and  _35
REMARK   15  A    between atoms: _38  and  _40
REMARK   16  A    between atoms: _40  and  _41
REMARK   17  A    between atoms: _40  and  _43
REMARK   18  A    between atoms: _43  and  _44
REMARK   19  A    between atoms: _46  and  _48
REMARK   20  A    between atoms: _48  and  _49
REMARK   21  A    between atoms: _48  and  _51
REMARK   22  A    between atoms: _51  and  _52
REMARK   23  A    between atoms: _54  and  _56
REMARK   24  A    between atoms: _56  and  _57
REMARK   25  A    between atoms: _56  and  _59
REMARK   26  A    between atoms: _59  and  _60
REMARK   27  A    between atoms: _60  and  _61
REMARK   28  A    between atoms: _64  and  _66
REMARK   29  A    between atoms: _66  and  _67
REMARK   30  A    between atoms: _66  and  _69
REMARK   31  A    between atoms: _69  and  _70
REMARK   32  A    between atoms: _72  and  _74
REMARK   33  A    between atoms: _74  and  _75
REMARK   34  A    between atoms: _74  and  _77
REMARK   35  A    between atoms: _77  and  _78
REMARK   36  A    between atoms: _81  and  _83
REMARK   37  A    between atoms: _83  and  _84
REMARK   38  A    between atoms: _87  and  _89
REMARK   39  A    between atoms: _89  and  _90
REMARK   40  A    between atoms: _89  and  _92
REMARK   41  A    between atoms: _92  and  _93
REMARK   42  A    between atoms: _93  and  _94
REMARK   43  A    between atoms: _94  and  _95
REMARK   44  A    between atoms: _95  and  _96
REMARK   45  A    between atoms: _100  and  _102
REMARK   46  A    between atoms: _102  and  _103
REMARK   47  A    between atoms: _102  and  _105
REMARK   48  A    between atoms: _105  and  _106
REMARK   49  A    between atoms: _109  and  _111
REMARK   50  A    between atoms: _111  and  _112
REMARK   51  A    between atoms: _111  and  _114
REMARK   52  A    between atoms: _117  and  _119
REMARK   53  A    between atoms: _119  and  _120
REMARK   54  A    between atoms: _119  and  _122
REMARK   55  A    between atoms: _122  and  _123
REMARK   56  A    between atoms: _126  and  _128
REMARK   57  A    between atoms: _128  and  _129
REMARK   58  A    between atoms: _128  and  _131
REMARK   59  A    between atoms: _131  and  _132
REMARK   60  A    between atoms: _132  and  _133
REMARK   61  A    between atoms: _135  and  _137
REMARK   62  A    between atoms: _137  and  _138
REMARK   63  A    between atoms: _137  and  _140
REMARK   64  A    between atoms: _140  and  _141
REMARK   65  A    between atoms: _147  and  _149
REMARK   66  A    between atoms: _149  and  _150
REMARK   67  A    between atoms: _153  and  _155
REMARK   68  A    between atoms: _155  and  _156
REMARK   69  A    between atoms: _155  and  _158
REMARK   70  A    between atoms: _158  and  _159
REMARK   71  A    between atoms: _164  and  _166
REMARK   72  A    between atoms: _166  and  _167
REMARK   73  A    between atoms: _166  and  _169
REMARK   74  A    between atoms: _169  and  _170
REMARK   75  A    between atoms: _173  and  _175
REMARK   76  A    between atoms: _175  and  _176
REMARK   77  A    between atoms: _175  and  _178
REMARK   78  A    between atoms: _178  and  _179
REMARK   79  A    between atoms: _179  and  _180
REMARK   80  A    between atoms: _185  and  _187
REMARK   81  A    between atoms: _187  and  _188
REMARK   82  A    between atoms: _187  and  _190
REMARK   83  A    between atoms: _190  and  _191
REMARK   84  A    between atoms: _195  and  _196
REMARK   85  A    between atoms: _201  and  _203
REMARK   86  A    between atoms: _203  and  _204
REMARK   87  A    between atoms: _203  and  _206
REMARK   88  A    between atoms: _206  and  _207
REMARK   89  A    between atoms: _212  and  _213
REMARK   90  A    between atoms: _215  and  _217
REMARK   91  A    between atoms: _217  and  _218
REMARK   92  A    between atoms: _217  and  _220
REMARK   93  A    between atoms: _220  and  _221
REMARK   94  A    between atoms: _224  and  _226
REMARK   95  A    between atoms: _226  and  _227
REMARK   96  A    between atoms: _226  and  _229
REMARK   97  A    between atoms: _229  and  _230
REMARK   98  A    between atoms: _232  and  _234
REMARK   99  A    between atoms: _234  and  _235
REMARK  100  A    between atoms: _234  and  _237
REMARK  101  A    between atoms: _237  and  _238
REMARK  102  A    between atoms: _243  and  _245
REMARK  103  A    between atoms: _245  and  _246
REMARK  104  A    between atoms: _245  and  _248
REMARK  105  A    between atoms: _248  and  _249
REMARK  106  A    between atoms: _252  and  _254
REMARK  107  A    between atoms: _254  and  _255
REMARK  108  A    between atoms: _254  and  _257
REMARK  109  A    between atoms: _257  and  _258
REMARK  110  A    between atoms: _269  and  _270
REMARK  111  A    between atoms: _275  and  _277
REMARK  112  A    between atoms: _277  and  _278
REMARK  113  A    between atoms: _277  and  _280
REMARK  114  A    between atoms: _280  and  _281
REMARK  115  A    between atoms: _284  and  _286
REMARK  116  A    between atoms: _286  and  _287
REMARK  117  A    between atoms: _286  and  _289
REMARK  118  A    between atoms: _289  and  _290
REMARK  119  A    between atoms: _295  and  _297
REMARK  120  A    between atoms: _297  and  _298
REMARK  121  A    between atoms: _300  and  _302
REMARK  122  A    between atoms: _302  and  _303
REMARK  123  A    between atoms: _302  and  _305
REMARK  124  A    between atoms: _305  and  _306
REMARK  125  A    between atoms: _316  and  _318
REMARK  126  A    between atoms: _318  and  _319
REMARK  127  A    between atoms: _318  and  _321
REMARK  128  A    between atoms: _321  and  _322
REMARK  129  A    between atoms: _327  and  _328
REMARK  130  A    between atoms: _330  and  _332
REMARK  131  A    between atoms: _332  and  _333
REMARK  132  A    between atoms: _332  and  _335
REMARK  133  A    between atoms: _335  and  _336
REMARK  134  A    between atoms: _339  and  _341
REMARK  135  A    between atoms: _341  and  _342
REMARK  136  A    between atoms: _341  and  _344
REMARK  137  A    between atoms: _344  and  _345
REMARK  138  A    between atoms: _350  and  _352
REMARK  139  A    between atoms: _352  and  _353
REMARK  140  A    between atoms: _352  and  _355
REMARK  141  A    between atoms: _355  and  _356
REMARK  142  A    between atoms: _361  and  _363
REMARK  143  A    between atoms: _363  and  _364
REMARK  144  A    between atoms: _363  and  _366
REMARK  145  A    between atoms: _366  and  _367
REMARK  146  A    between atoms: _367  and  _368
REMARK  147  A    between atoms: _371  and  _373
REMARK  148  A    between atoms: _373  and  _374
REMARK  149  A    between atoms: _376  and  _378
REMARK  150  A    between atoms: _378  and  _379
REMARK  151  A    between atoms: _378  and  _381
REMARK  152  A    between atoms: _381  and  _382
REMARK  153  A    between atoms: _384  and  _386
REMARK  154  A    between atoms: _386  and  _387
REMARK  155  A    between atoms: _386  and  _389
REMARK  156  A    between atoms: _389  and  _390
REMARK  157  A    between atoms: _395  and  _396
REMARK  158  A    between atoms: _398  and  _400
REMARK  159  A    between atoms: _400  and  _401
REMARK  160  A    between atoms: _400  and  _403
REMARK  161  A    between atoms: _403  and  _404
REMARK  162  A    between atoms: _409  and  _411
REMARK  163  A    between atoms: _411  and  _412
REMARK  164  A    between atoms: _414  and  _416
REMARK  165  A    between atoms: _416  and  _417
REMARK  166  A    between atoms: _416  and  _419
REMARK  167  A    between atoms: _419  and  _420
REMARK  168  A    between atoms: _425  and  _427
REMARK  169  A    between atoms: _427  and  _428
REMARK  170  A    between atoms: _427  and  _430
REMARK  171  A    between atoms: _430  and  _431
REMARK  172  A    between atoms: _441  and  _443
REMARK  173  A    between atoms: _443  and  _444
REMARK  174  A    between atoms: _443  and  _446
REMARK  175  A    between atoms: _446  and  _447
REMARK  176  A    between atoms: _452  and  _454
REMARK  177  A    between atoms: _454  and  _455
REMARK  178  A    between atoms: _454  and  _457
REMARK  179  A    between atoms: _457  and  _458
REMARK  180  A    between atoms: _458  and  _459
REMARK  181  A    between atoms: _459  and  _460
REMARK  182  A    between atoms: _460  and  _461
REMARK  183  A    between atoms: _465  and  _467
REMARK  184  A    between atoms: _467  and  _468
REMARK  185  A    between atoms: _467  and  _470
REMARK  186  A    between atoms: _470  and  _471
REMARK  187  A    between atoms: _477  and  _479
REMARK  188  A    between atoms: _479  and  _480
REMARK  189  A    between atoms: _482  and  _484
REMARK  190  A    between atoms: _484  and  _485
REMARK  191  A    between atoms: _484  and  _487
REMARK  192  A    between atoms: _487  and  _488
REMARK  193  A    between atoms: _490  and  _492
REMARK  194  A    between atoms: _492  and  _493
REMARK  195  A    between atoms: _492  and  _495
REMARK  196  A    between atoms: _495  and  _496
REMARK  197  A    between atoms: _496  and  _497
REMARK  198  A    between atoms: _497  and  _498
REMARK  199  A    between atoms: _498  and  _499
REMARK  200  A    between atoms: _503  and  _505
REMARK  201  A    between atoms: _505  and  _506
REMARK  202  A    between atoms: _505  and  _508
REMARK  203  A    between atoms: _508  and  _509
REMARK  204  A    between atoms: _514  and  _516
REMARK  205  A    between atoms: _516  and  _517
REMARK  206  A    between atoms: _516  and  _519
REMARK  207  A    between atoms: _519  and  _520
REMARK  208  A    between atoms: _520  and  _521
REMARK  209  A    between atoms: _521  and  _522
REMARK  210  A    between atoms: _531  and  _533
REMARK  211  A    between atoms: _533  and  _534
REMARK  212  A    between atoms: _533  and  _536
REMARK  213  A    between atoms: _536  and  _537
REMARK  214  A    between atoms: _537  and  _538
REMARK  215  A    between atoms: _543  and  _545
REMARK  216  A    between atoms: _545  and  _546
REMARK  217  A    between atoms: _545  and  _548
REMARK  218  A    between atoms: _548  and  _549
REMARK  219  A    between atoms: _549  and  _550
REMARK  220  A    between atoms: _555  and  _557
REMARK  221  A    between atoms: _557  and  _558
REMARK  222  A    between atoms: _557  and  _560
REMARK  223  A    between atoms: _560  and  _561
REMARK  224  A    between atoms: _564  and  _566
REMARK  225  A    between atoms: _566  and  _567
REMARK  226  A    between atoms: _566  and  _569
REMARK  227  A    between atoms: _569  and  _570
REMARK  228  A    between atoms: _570  and  _571
REMARK  229  A    between atoms: _573  and  _575
REMARK  230  A    between atoms: _575  and  _576
REMARK  231  A    between atoms: _575  and  _578
REMARK  232  A    between atoms: _578  and  _579
REMARK  233  A    between atoms: _581  and  _583
REMARK  234  A    between atoms: _583  and  _584
REMARK  235  A    between atoms: _586  and  _588
REMARK  236  A    between atoms: _588  and  _589
REMARK  237  A    between atoms: _588  and  _591
REMARK  238  A    between atoms: _591  and  _592
REMARK  239  A    between atoms: _597  and  _598
REMARK  240  A    between atoms: _600  and  _602
REMARK  241  A    between atoms: _602  and  _603
REMARK  242  A    between atoms: _602  and  _605
REMARK  243  A    between atoms: _605  and  _606
REMARK  244  A    between atoms: _616  and  _618
REMARK  245  A    between atoms: _618  and  _619
REMARK  246  A    between atoms: _618  and  _621
REMARK  247  A    between atoms: _621  and  _622
REMARK  248  A    between atoms: _625  and  _627
REMARK  249  A    between atoms: _627  and  _628
REMARK  250  A    between atoms: _631  and  _633
REMARK  251  A    between atoms: _633  and  _634
REMARK  252  A    between atoms: _637  and  _639
REMARK  253  A    between atoms: _639  and  _640
REMARK  254  A    between atoms: _639  and  _642
REMARK  255  A    between atoms: _642  and  _643
REMARK  256  A    between atoms: _647  and  _648
REMARK                            x       y       z     vdW  Elec       q    Type
REMARK                         _______ _______ _______ _____ _____    ______ ____
ROOT
ATOM      1  O   HOH     1      30.447  62.794  33.788  0.00  0.00    +0.000 OA
ENDROOT
TORSDOF 0
REMARK  Name = ../refined-set-2016/4uac/4uac_pocket.pdb
REMARK  256 active torsions:
REMARK  status: ('A' for Active; 'I' for Inactive)
REMARK    1  A    between atoms: _1  and  _3
REMARK    2  A    between atoms: _3  and  _4
REMARK    3  A    between atoms: _7  and  _8
REMARK    4  A    between atoms: _13  and  _15
REMARK    5  A    between atoms: _15  and  _16
REMARK    6  A    between atoms: _19  and  _21
REMARK    7  A    between atoms: _21  and  _22
REMARK    8  A    between atoms: _21  and  _24
REMARK    9  A    between atoms: _24  and  _25
REMARK   10  A    between atoms: _25  and  _26
REMARK   11  A    between atoms: _29  and  _31
REMARK   12  A    between atoms: _31  and  _32
REMARK   13  A    between atoms: _31  and  _34
REMARK   14  A    between atoms: _34  and  _35
REMARK   15  A    between atoms: _38  and  _40
REMARK   16  A    between atoms: _40  and  _41
REMARK   17  A    between atoms: _40  and  _43
REMARK   18  A    between atoms: _43  and  _44
REMARK   19  A    between atoms: _46  and  _48
REMARK   20  A    between atoms: _48  and  _49
REMARK   21  A    between atoms: _48  and  _51
REMARK   22  A    between atoms: _51  and  _52
REMARK   23  A    between atoms: _54  and  _56
REMARK   24  A    between atoms: _56  and  _57
REMARK   25  A    between atoms: _56  and  _59
REMARK   26  A    between atoms: _59  and  _60
REMARK   27  A    between atoms: _60  and  _61
REMARK   28  A    between atoms: _64  and  _66
REMARK   29  A    between atoms: _66  and  _67
REMARK   30  A    between atoms: _66  and  _69
REMARK   31  A    between atoms: _69  and  _70
REMARK   32  A    between atoms: _72  and  _74
REMARK   33  A    between atoms: _74  and  _75
REMARK   34  A    between atoms: _74  and  _77
REMARK   35  A    between atoms: _77  and  _78
REMARK   36  A    between atoms: _81  and  _83
REMARK   37  A    between atoms: _83  and  _84
REMARK   38  A    between atoms: _87  and  _89
REMARK   39  A    between atoms: _89  and  _90
REMARK   40  A    between atoms: _89  and  _92
REMARK   41  A    between atoms: _92  and  _93
REMARK   42  A    between atoms: _93  and  _94
REMARK   43  A    between atoms: _94  and  _95
REMARK   44  A    between atoms: _95  and  _96
REMARK   45  A    between atoms: _100  and  _102
REMARK   46  A    between atoms: _102  and  _103
REMARK   47  A    between atoms: _102  and  _105
REMARK   48  A    between atoms: _105  and  _106
REMARK   49  A    between atoms: _109  and  _111
REMARK   50  A    between atoms: _111  and  _112
REMARK   51  A    between atoms: _111  and  _114
REMARK   52  A    between atoms: _117  and  _119
REMARK   53  A    between atoms: _119  and  _120
REMARK   54  A    between atoms: _119  and  _122
REMARK   55  A    between atoms: _122  and  _123
REMARK   56  A    between atoms: _126  and  _128
REMARK   57  A    between atoms: _128  and  _129
REMARK   58  A    between atoms: _128  and  _131
REMARK   59  A    between atoms: _131  and  _132
REMARK   60  A    between atoms: _132  and  _133
REMARK   61  A    between atoms: _135  and  _137
REMARK   62  A    between atoms: _137  and  _138
REMARK   63  A    between atoms: _137  and  _140
REMARK   64  A    between atoms: _140  and  _141
REMARK   65  A    between atoms: _147  and  _149
REMARK   66  A    between atoms: _149  and  _150
REMARK   67  A    between atoms: _153  and  _155
REMARK   68  A    between atoms: _155  and  _156
REMARK   69  A    between atoms: _155  and  _158
REMARK   70  A    between atoms: _158  and  _159
REMARK   71  A    between atoms: _164  and  _166
REMARK   72  A    between atoms: _166  and  _167
REMARK   73  A    between atoms: _166  and  _169
REMARK   74  A    between atoms: _169  and  _170
REMARK   75  A    between atoms: _173  and  _175
REMARK   76  A    between atoms: _175  and  _176
REMARK   77  A    between atoms: _175  and  _178
REMARK   78  A    between atoms: _178  and  _179
REMARK   79  A    between atoms: _179  and  _180
REMARK   80  A    between atoms: _185  and  _187
REMARK   81  A    between atoms: _187  and  _188
REMARK   82  A    between atoms: _187  and  _190
REMARK   83  A    between atoms: _190  and  _191
REMARK   84  A    between atoms: _195  and  _196
REMARK   85  A    between atoms: _201  and  _203
REMARK   86  A    between atoms: _203  and  _204
REMARK   87  A    between atoms: _203  and  _206
REMARK   88  A    between atoms: _206  and  _207
REMARK   89  A    between atoms: _212  and  _213
REMARK   90  A    between atoms: _215  and  _217
REMARK   91  A    between atoms: _217  and  _218
REMARK   92  A    between atoms: _217  and  _220
REMARK   93  A    between atoms: _220  and  _221
REMARK   94  A    between atoms: _224  and  _226
REMARK   95  A    between atoms: _226  and  _227
REMARK   96  A    between atoms: _226  and  _229
REMARK   97  A    between atoms: _229  and  _230
REMARK   98  A    between atoms: _232  and  _234
REMARK   99  A    between atoms: _234  and  _235
REMARK  100  A    between atoms: _234  and  _237
REMARK  101  A    between atoms: _237  and  _238
REMARK  102  A    between atoms: _243  and  _245
REMARK  103  A    between atoms: _245  and  _246
REMARK  104  A    between atoms: _245  and  _248
REMARK  105  A    between atoms: _248  and  _249
REMARK  106  A    between atoms: _252  and  _254
REMARK  107  A    between atoms: _254  and  _255
REMARK  108  A    between atoms: _254  and  _257
REMARK  109  A    between atoms: _257  and  _258
REMARK  110  A    between atoms: _269  and  _270
REMARK  111  A    between atoms: _275  and  _277
REMARK  112  A    between atoms: _277  and  _278
REMARK  113  A    between atoms: _277  and  _280
REMARK  114  A    between atoms: _280  and  _281
REMARK  115  A    between atoms: _284  and  _286
REMARK  116  A    between atoms: _286  and  _287
REMARK  117  A    between atoms: _286  and  _289
REMARK  118  A    between atoms: _289  and  _290
REMARK  119  A    between atoms: _295  and  _297
REMARK  120  A    between atoms: _297  and  _298
REMARK  121  A    between atoms: _300  and  _302
REMARK  122  A    between atoms: _302  and  _303
REMARK  123  A    between atoms: _302  and  _305
REMARK  124  A    between atoms: _305  and  _306
REMARK  125  A    between atoms: _316  and  _318
REMARK  126  A    between atoms: _318  and  _319
REMARK  127  A    between atoms: _318  and  _321
REMARK  128  A    between atoms: _321  and  _322
REMARK  129  A    between atoms: _327  and  _328
REMARK  130  A    between atoms: _330  and  _332
REMARK  131  A    between atoms: _332  and  _333
REMARK  132  A    between atoms: _332  and  _335
REMARK  133  A    between atoms: _335  and  _336
REMARK  134  A    between atoms: _339  and  _341
REMARK  135  A    between atoms: _341  and  _342
REMARK  136  A    between atoms: _341  and  _344
REMARK  137  A    between atoms: _344  and  _345
REMARK  138  A    between atoms: _350  and  _352
REMARK  139  A    between atoms: _352  and  _353
REMARK  140  A    between atoms: _352  and  _355
REMARK  141  A    between atoms: _355  and  _356
REMARK  142  A    between atoms: _361  and  _363
REMARK  143  A    between atoms: _363  and  _364
REMARK  144  A    between atoms: _363  and  _366
REMARK  145  A    between atoms: _366  and  _367
REMARK  146  A    between atoms: _367  and  _368
REMARK  147  A    between atoms: _371  and  _373
REMARK  148  A    between atoms: _373  and  _374
REMARK  149  A    between atoms: _376  and  _378
REMARK  150  A    between atoms: _378  and  _379
REMARK  151  A    between atoms: _378  and  _381
REMARK  152  A    between atoms: _381  and  _382
REMARK  153  A    between atoms: _384  and  _386
REMARK  154  A    between atoms: _386  and  _387
REMARK  155  A    between atoms: _386  and  _389
REMARK  156  A    between atoms: _389  and  _390
REMARK  157  A    between atoms: _395  and  _396
REMARK  158  A    between atoms: _398  and  _400
REMARK  159  A    between atoms: _400  and  _401
REMARK  160  A    between atoms: _400  and  _403
REMARK  161  A    between atoms: _403  and  _404
REMARK  162  A    between atoms: _409  and  _411
REMARK  163  A    between atoms: _411  and  _412
REMARK  164  A    between atoms: _414  and  _416
REMARK  165  A    between atoms: _416  and  _417
REMARK  166  A    between atoms: _416  and  _419
REMARK  167  A    between atoms: _419  and  _420
REMARK  168  A    between atoms: _425  and  _427
REMARK  169  A    between atoms: _427  and  _428
REMARK  170  A    between atoms: _427  and  _430
REMARK  171  A    between atoms: _430  and  _431
REMARK  172  A    between atoms: _441  and  _443
REMARK  173  A    between atoms: _443  and  _444
REMARK  174  A    between atoms: _443  and  _446
REMARK  175  A    between atoms: _446  and  _447
REMARK  176  A    between atoms: _452  and  _454
REMARK  177  A    between atoms: _454  and  _455
REMARK  178  A    between atoms: _454  and  _457
REMARK  179  A    between atoms: _457  and  _458
REMARK  180  A    between atoms: _458  and  _459
REMARK  181  A    between atoms: _459  and  _460
REMARK  182  A    between atoms: _460  and  _461
REMARK  183  A    between atoms: _465  and  _467
REMARK  184  A    between atoms: _467  and  _468
REMARK  185  A    between atoms: _467  and  _470
REMARK  186  A    between atoms: _470  and  _471
REMARK  187  A    between atoms: _477  and  _479
REMARK  188  A    between atoms: _479  and  _480
REMARK  189  A    between atoms: _482  and  _484
REMARK  190  A    between atoms: _484  and  _485
REMARK  191  A    between atoms: _484  and  _487
REMARK  192  A    between atoms: _487  and  _488
REMARK  193  A    between atoms: _490  and  _492
REMARK  194  A    between atoms: _492  and  _493
REMARK  195  A    between atoms: _492  and  _495
REMARK  196  A    between atoms: _495  and  _496
REMARK  197  A    between atoms: _496  and  _497
REMARK  198  A    between atoms: _497  and  _498
REMARK  199  A    between atoms: _498  and  _499
REMARK  200  A    between atoms: _503  and  _505
REMARK  201  A    between atoms: _505  and  _506
REMARK  202  A    between atoms: _505  and  _508
REMARK  203  A    between atoms: _508  and  _509
REMARK  204  A    between atoms: _514  and  _516
REMARK  205  A    between atoms: _516  and  _517
REMARK  206  A    between atoms: _516  and  _519
REMARK  207  A    between atoms: _519  and  _520
REMARK  208  A    between atoms: _520  and  _521
REMARK  209  A    between atoms: _521  and  _522
REMARK  210  A    between atoms: _531  and  _533
REMARK  211  A    between atoms: _533  and  _534
REMARK  212  A    between atoms: _533  and  _536
REMARK  213  A    between atoms: _536  and  _537
REMARK  214  A    between atoms: _537  and  _538
REMARK  215  A    between atoms: _543  and  _545
REMARK  216  A    between atoms: _545  and  _546
REMARK  217  A    between atoms: _545  and  _548
REMARK  218  A    between atoms: _548  and  _549
REMARK  219  A    between atoms: _549  and  _550
REMARK  220  A    between atoms: _555  and  _557
REMARK  221  A    between atoms: _557  and  _558
REMARK  222  A    between atoms: _557  and  _560
REMARK  223  A    between atoms: _560  and  _561
REMARK  224  A    between atoms: _564  and  _566
REMARK  225  A    between atoms: _566  and  _567
REMARK  226  A    between atoms: _566  and  _569
REMARK  227  A    between atoms: _569  and  _570
REMARK  228  A    between atoms: _570  and  _571
REMARK  229  A    between atoms: _573  and  _575
REMARK  230  A    between atoms: _575  and  _576
REMARK  231  A    between atoms: _575  and  _578
REMARK  232  A    between atoms: _578  and  _579
REMARK  233  A    between atoms: _581  and  _583
REMARK  234  A    between atoms: _583  and  _584
REMARK  235  A    between atoms: _586  and  _588
REMARK  236  A    between atoms: _588  and  _589
REMARK  237  A    between atoms: _588  and  _591
REMARK  238  A    between atoms: _591  and  _592
REMARK  239  A    between atoms: _597  and  _598
REMARK  240  A    between atoms: _600  and  _602
REMARK  241  A    between atoms: _602  and  _603
REMARK  242  A    between atoms: _602  and  _605
REMARK  243  A    between atoms: _605  and  _606
REMARK  244  A    between atoms: _616  and  _618
REMARK  245  A    between atoms: _618  and  _619
REMARK  246  A    between atoms: _618  and  _621
REMARK  247  A    between atoms: _621  and  _622
REMARK  248  A    between atoms: _625  and  _627
REMARK  249  A    between atoms: _627  and  _628
REMARK  250  A    between atoms: _631  and  _633
REMARK  251  A    between atoms: _633  and  _634
REMARK  252  A    between atoms: _637  and  _639
REMARK  253  A    between atoms: _639  and  _640
REMARK  254  A    between atoms: _639  and  _642
REMARK  255  A    between atoms: _642  and  _643
REMARK  256  A    between atoms: _647  and  _648
REMARK                            x       y       z     vdW  Elec       q    Type
REMARK                         _______ _______ _______ _____ _____    ______ ____
ROOT
ATOM      1  O   HOH     1      25.010  68.028  17.887  0.00  0.00    +0.000 OA
ENDROOT
TORSDOF 0
REMARK  Name = ../refined-set-2016/4uac/4uac_pocket.pdb
REMARK  256 active torsions:
REMARK  status: ('A' for Active; 'I' for Inactive)
REMARK    1  A    between atoms: _1  and  _3
REMARK    2  A    between atoms: _3  and  _4
REMARK    3  A    between atoms: _7  and  _8
REMARK    4  A    between atoms: _13  and  _15
REMARK    5  A    between atoms: _15  and  _16
REMARK    6  A    between atoms: _19  and  _21
REMARK    7  A    between atoms: _21  and  _22
REMARK    8  A    between atoms: _21  and  _24
REMARK    9  A    between atoms: _24  and  _25
REMARK   10  A    between atoms: _25  and  _26
REMARK   11  A    between atoms: _29  and  _31
REMARK   12  A    between atoms: _31  and  _32
REMARK   13  A    between atoms: _31  and  _34
REMARK   14  A    between atoms: _34  and  _35
REMARK   15  A    between atoms: _38  and  _40
REMARK   16  A    between atoms: _40  and  _41
REMARK   17  A    between atoms: _40  and  _43
REMARK   18  A    between atoms: _43  and  _44
REMARK   19  A    between atoms: _46  and  _48
REMARK   20  A    between atoms: _48  and  _49
REMARK   21  A    between atoms: _48  and  _51
REMARK   22  A    between atoms: _51  and  _52
REMARK   23  A    between atoms: _54  and  _56
REMARK   24  A    between atoms: _56  and  _57
REMARK   25  A    between atoms: _56  and  _59
REMARK   26  A    between atoms: _59  and  _60
REMARK   27  A    between atoms: _60  and  _61
REMARK   28  A    between atoms: _64  and  _66
REMARK   29  A    between atoms: _66  and  _67
REMARK   30  A    between atoms: _66  and  _69
REMARK   31  A    between atoms: _69  and  _70
REMARK   32  A    between atoms: _72  and  _74
REMARK   33  A    between atoms: _74  and  _75
REMARK   34  A    between atoms: _74  and  _77
REMARK   35  A    between atoms: _77  and  _78
REMARK   36  A    between atoms: _81  and  _83
REMARK   37  A    between atoms: _83  and  _84
REMARK   38  A    between atoms: _87  and  _89
REMARK   39  A    between atoms: _89  and  _90
REMARK   40  A    between atoms: _89  and  _92
REMARK   41  A    between atoms: _92  and  _93
REMARK   42  A    between atoms: _93  and  _94
REMARK   43  A    between atoms: _94  and  _95
REMARK   44  A    between atoms: _95  and  _96
REMARK   45  A    between atoms: _100  and  _102
REMARK   46  A    between atoms: _102  and  _103
REMARK   47  A    between atoms: _102  and  _105
REMARK   48  A    between atoms: _105  and  _106
REMARK   49  A    between atoms: _109  and  _111
REMARK   50  A    between atoms: _111  and  _112
REMARK   51  A    between atoms: _111  and  _114
REMARK   52  A    between atoms: _117  and  _119
REMARK   53  A    between atoms: _119  and  _120
REMARK   54  A    between atoms: _119  and  _122
REMARK   55  A    between atoms: _122  and  _123
REMARK   56  A    between atoms: _126  and  _128
REMARK   57  A    between atoms: _128  and  _129
REMARK   58  A    between atoms: _128  and  _131
REMARK   59  A    between atoms: _131  and  _132
REMARK   60  A    between atoms: _132  and  _133
REMARK   61  A    between atoms: _135  and  _137
REMARK   62  A    between atoms: _137  and  _138
REMARK   63  A    between atoms: _137  and  _140
REMARK   64  A    between atoms: _140  and  _141
REMARK   65  A    between atoms: _147  and  _149
REMARK   66  A    between atoms: _149  and  _150
REMARK   67  A    between atoms: _153  and  _155
REMARK   68  A    between atoms: _155  and  _156
REMARK   69  A    between atoms: _155  and  _158
REMARK   70  A    between atoms: _158  and  _159
REMARK   71  A    between atoms: _164  and  _166
REMARK   72  A    between atoms: _166  and  _167
REMARK   73  A    between atoms: _166  and  _169
REMARK   74  A    between atoms: _169  and  _170
REMARK   75  A    between atoms: _173  and  _175
REMARK   76  A    between atoms: _175  and  _176
REMARK   77  A    between atoms: _175  and  _178
REMARK   78  A    between atoms: _178  and  _179
REMARK   79  A    between atoms: _179  and  _180
REMARK   80  A    between atoms: _185  and  _187
REMARK   81  A    between atoms: _187  and  _188
REMARK   82  A    between atoms: _187  and  _190
REMARK   83  A    between atoms: _190  and  _191
REMARK   84  A    between atoms: _195  and  _196
REMARK   85  A    between atoms: _201  and  _203
REMARK   86  A    between atoms: _203  and  _204
REMARK   87  A    between atoms: _203  and  _206
REMARK   88  A    between atoms: _206  and  _207
REMARK   89  A    between atoms: _212  and  _213
REMARK   90  A    between atoms: _215  and  _217
REMARK   91  A    between atoms: _217  and  _218
REMARK   92  A    between atoms: _217  and  _220
REMARK   93  A    between atoms: _220  and  _221
REMARK   94  A    between atoms: _224  and  _226
REMARK   95  A    between atoms: _226  and  _227
REMARK   96  A    between atoms: _226  and  _229
REMARK   97  A    between atoms: _229  and  _230
REMARK   98  A    between atoms: _232  and  _234
REMARK   99  A    between atoms: _234  and  _235
REMARK  100  A    between atoms: _234  and  _237
REMARK  101  A    between atoms: _237  and  _238
REMARK  102  A    between atoms: _243  and  _245
REMARK  103  A    between atoms: _245  and  _246
REMARK  104  A    between atoms: _245  and  _248
REMARK  105  A    between atoms: _248  and  _249
REMARK  106  A    between atoms: _252  and  _254
REMARK  107  A    between atoms: _254  and  _255
REMARK  108  A    between atoms: _254  and  _257
REMARK  109  A    between atoms: _257  and  _258
REMARK  110  A    between atoms: _269  and  _270
REMARK  111  A    between atoms: _275  and  _277
REMARK  112  A    between atoms: _277  and  _278
REMARK  113  A    between atoms: _277  and  _280
REMARK  114  A    between atoms: _280  and  _281
REMARK  115  A    between atoms: _284  and  _286
REMARK  116  A    between atoms: _286  and  _287
REMARK  117  A    between atoms: _286  and  _289
REMARK  118  A    between atoms: _289  and  _290
REMARK  119  A    between atoms: _295  and  _297
REMARK  120  A    between atoms: _297  and  _298
REMARK  121  A    between atoms: _300  and  _302
REMARK  122  A    between atoms: _302  and  _303
REMARK  123  A    between atoms: _302  and  _305
REMARK  124  A    between atoms: _305  and  _306
REMARK  125  A    between atoms: _316  and  _318
REMARK  126  A    between atoms: _318  and  _319
REMARK  127  A    between atoms: _318  and  _321
REMARK  128  A    between atoms: _321  and  _322
REMARK  129  A    between atoms: _327  and  _328
REMARK  130  A    between atoms: _330  and  _332
REMARK  131  A    between atoms: _332  and  _333
REMARK  132  A    between atoms: _332  and  _335
REMARK  133  A    between atoms: _335  and  _336
REMARK  134  A    between atoms: _339  and  _341
REMARK  135  A    between atoms: _341  and  _342
REMARK  136  A    between atoms: _341  and  _344
REMARK  137  A    between atoms: _344  and  _345
REMARK  138  A    between atoms: _350  and  _352
REMARK  139  A    between atoms: _352  and  _353
REMARK  140  A    between atoms: _352  and  _355
REMARK  141  A    between atoms: _355  and  _356
REMARK  142  A    between atoms: _361  and  _363
REMARK  143  A    between atoms: _363  and  _364
REMARK  144  A    between atoms: _363  and  _366
REMARK  145  A    between atoms: _366  and  _367
REMARK  146  A    between atoms: _367  and  _368
REMARK  147  A    between atoms: _371  and  _373
REMARK  148  A    between atoms: _373  and  _374
REMARK  149  A    between atoms: _376  and  _378
REMARK  150  A    between atoms: _378  and  _379
REMARK  151  A    between atoms: _378  and  _381
REMARK  152  A    between atoms: _381  and  _382
REMARK  153  A    between atoms: _384  and  _386
REMARK  154  A    between atoms: _386  and  _387
REMARK  155  A    between atoms: _386  and  _389
REMARK  156  A    between atoms: _389  and  _390
REMARK  157  A    between atoms: _395  and  _396
REMARK  158  A    between atoms: _398  and  _400
REMARK  159  A    between atoms: _400  and  _401
REMARK  160  A    between atoms: _400  and  _403
REMARK  161  A    between atoms: _403  and  _404
REMARK  162  A    between atoms: _409  and  _411
REMARK  163  A    between atoms: _411  and  _412
REMARK  164  A    between atoms: _414  and  _416
REMARK  165  A    between atoms: _416  and  _417
REMARK  166  A    between atoms: _416  and  _419
REMARK  167  A    between atoms: _419  and  _420
REMARK  168  A    between atoms: _425  and  _427
REMARK  169  A    between atoms: _427  and  _428
REMARK  170  A    between atoms: _427  and  _430
REMARK  171  A    between atoms: _430  and  _431
REMARK  172  A    between atoms: _441  and  _443
REMARK  173  A    between atoms: _443  and  _444
REMARK  174  A    between atoms: _443  and  _446
REMARK  175  A    between atoms: _446  and  _447
REMARK  176  A    between atoms: _452  and  _454
REMARK  177  A    between atoms: _454  and  _455
REMARK  178  A    between atoms: _454  and  _457
REMARK  179  A    between atoms: _457  and  _458
REMARK  180  A    between atoms: _458  and  _459
REMARK  181  A    between atoms: _459  and  _460
REMARK  182  A    between atoms: _460  and  _461
REMARK  183  A    between atoms: _465  and  _467
REMARK  184  A    between atoms: _467  and  _468
REMARK  185  A    between atoms: _467  and  _470
REMARK  186  A    between atoms: _470  and  _471
REMARK  187  A    between atoms: _477  and  _479
REMARK  188  A    between atoms: _479  and  _480
REMARK  189  A    between atoms: _482  and  _484
REMARK  190  A    between atoms: _484  and  _485
REMARK  191  A    between atoms: _484  and  _487
REMARK  192  A    between atoms: _487  and  _488
REMARK  193  A    between atoms: _490  and  _492
REMARK  194  A    between atoms: _492  and  _493
REMARK  195  A    between atoms: _492  and  _495
REMARK  196  A    between atoms: _495  and  _496
REMARK  197  A    between atoms: _496  and  _497
REMARK  198  A    between atoms: _497  and  _498
REMARK  199  A    between atoms: _498  and  _499
REMARK  200  A    between atoms: _503  and  _505
REMARK  201  A    between atoms: _505  and  _506
REMARK  202  A    between atoms: _505  and  _508
REMARK  203  A    between atoms: _508  and  _509
REMARK  204  A    between atoms: _514  and  _516
REMARK  205  A    between atoms: _516  and  _517
REMARK  206  A    between atoms: _516  and  _519
REMARK  207  A    between atoms: _519  and  _520
REMARK  208  A    between atoms: _520  and  _521
REMARK  209  A    between atoms: _521  and  _522
REMARK  210  A    between atoms: _531  and  _533
REMARK  211  A    between atoms: _533  and  _534
REMARK  212  A    between atoms: _533  and  _536
REMARK  213  A    between atoms: _536  and  _537
REMARK  214  A    between atoms: _537  and  _538
REMARK  215  A    between atoms: _543  and  _545
REMARK  216  A    between atoms: _545  and  _546
REMARK  217  A    between atoms: _545  and  _548
REMARK  218  A    between atoms: _548  and  _549
REMARK  219  A    between atoms: _549  and  _550
REMARK  220  A    between atoms: _555  and  _557
REMARK  221  A    between atoms: _557  and  _558
REMARK  222  A    between atoms: _557  and  _560
REMARK  223  A    between atoms: _560  and  _561
REMARK  224  A    between atoms: _564  and  _566
REMARK  225  A    between atoms: _566  and  _567
REMARK  226  A    between atoms: _566  and  _569
REMARK  227  A    between atoms: _569  and  _570
REMARK  228  A    between atoms: _570  and  _571
REMARK  229  A    between atoms: _573  and  _575
REMARK  230  A    between atoms: _575  and  _576
REMARK  231  A    between atoms: _575  and  _578
REMARK  232  A    between atoms: _578  and  _579
REMARK  233  A    between atoms: _581  and  _583
REMARK  234  A    between atoms: _583  and  _584
REMARK  235  A    between atoms: _586  and  _588
REMARK  236  A    between atoms: _588  and  _589
REMARK  237  A    between atoms: _588  and  _591
REMARK  238  A    between atoms: _591  and  _592
REMARK  239  A    between atoms: _597  and  _598
REMARK  240  A    between atoms: _600  and  _602
REMARK  241  A    between atoms: _602  and  _603
REMARK  242  A    between atoms: _602  and  _605
REMARK  243  A    between atoms: _605  and  _606
REMARK  244  A    between atoms: _616  and  _618
REMARK  245  A    between atoms: _618  and  _619
REMARK  246  A    between atoms: _618  and  _621
REMARK  247  A    between atoms: _621  and  _622
REMARK  248  A    between atoms: _625  and  _627
REMARK  249  A    between atoms: _627  and  _628
REMARK  250  A    between atoms: _631  and  _633
REMARK  251  A    between atoms: _633  and  _634
REMARK  252  A    between atoms: _637  and  _639
REMARK  253  A    between atoms: _639  and  _640
REMARK  254  A    between atoms: _639  and  _642
REMARK  255  A    between atoms: _642  and  _643
REMARK  256  A    between atoms: _647  and  _648
REMARK                            x       y       z     vdW  Elec       q    Type
REMARK                         _______ _______ _______ _____ _____    ______ ____
ROOT
ATOM      1  O   HOH     1      25.849  69.062  30.178  0.00  0.00    +0.000 OA
ENDROOT
TORSDOF 0
REMARK  Name = ../refined-set-2016/4uac/4uac_pocket.pdb
REMARK  256 active torsions:
REMARK  status: ('A' for Active; 'I' for Inactive)
REMARK    1  A    between atoms: _1  and  _3
REMARK    2  A    between atoms: _3  and  _4
REMARK    3  A    between atoms: _7  and  _8
REMARK    4  A    between atoms: _13  and  _15
REMARK    5  A    between atoms: _15  and  _16
REMARK    6  A    between atoms: _19  and  _21
REMARK    7  A    between atoms: _21  and  _22
REMARK    8  A    between atoms: _21  and  _24
REMARK    9  A    between atoms: _24  and  _25
REMARK   10  A    between atoms: _25  and  _26
REMARK   11  A    between atoms: _29  and  _31
REMARK   12  A    between atoms: _31  and  _32
REMARK   13  A    between atoms: _31  and  _34
REMARK   14  A    between atoms: _34  and  _35
REMARK   15  A    between atoms: _38  and  _40
REMARK   16  A    between atoms: _40  and  _41
REMARK   17  A    between atoms: _40  and  _43
REMARK   18  A    between atoms: _43  and  _44
REMARK   19  A    between atoms: _46  and  _48
REMARK   20  A    between atoms: _48  and  _49
REMARK   21  A    between atoms: _48  and  _51
REMARK   22  A    between atoms: _51  and  _52
REMARK   23  A    between atoms: _54  and  _56
REMARK   24  A    between atoms: _56  and  _57
REMARK   25  A    between atoms: _56  and  _59
REMARK   26  A    between atoms: _59  and  _60
REMARK   27  A    between atoms: _60  and  _61
REMARK   28  A    between atoms: _64  and  _66
REMARK   29  A    between atoms: _66  and  _67
REMARK   30  A    between atoms: _66  and  _69
REMARK   31  A    between atoms: _69  and  _70
REMARK   32  A    between atoms: _72  and  _74
REMARK   33  A    between atoms: _74  and  _75
REMARK   34  A    between atoms: _74  and  _77
REMARK   35  A    between atoms: _77  and  _78
REMARK   36  A    between atoms: _81  and  _83
REMARK   37  A    between atoms: _83  and  _84
REMARK   38  A    between atoms: _87  and  _89
REMARK   39  A    between atoms: _89  and  _90
REMARK   40  A    between atoms: _89  and  _92
REMARK   41  A    between atoms: _92  and  _93
REMARK   42  A    between atoms: _93  and  _94
REMARK   43  A    between atoms: _94  and  _95
REMARK   44  A    between atoms: _95  and  _96
REMARK   45  A    between atoms: _100  and  _102
REMARK   46  A    between atoms: _102  and  _103
REMARK   47  A    between atoms: _102  and  _105
REMARK   48  A    between atoms: _105  and  _106
REMARK   49  A    between atoms: _109  and  _111
REMARK   50  A    between atoms: _111  and  _112
REMARK   51  A    between atoms: _111  and  _114
REMARK   52  A    between atoms: _117  and  _119
REMARK   53  A    between atoms: _119  and  _120
REMARK   54  A    between atoms: _119  and  _122
REMARK   55  A    between atoms: _122  and  _123
REMARK   56  A    between atoms: _126  and  _128
REMARK   57  A    between atoms: _128  and  _129
REMARK   58  A    between atoms: _128  and  _131
REMARK   59  A    between atoms: _131  and  _132
REMARK   60  A    between atoms: _132  and  _133
REMARK   61  A    between atoms: _135  and  _137
REMARK   62  A    between atoms: _137  and  _138
REMARK   63  A    between atoms: _137  and  _140
REMARK   64  A    between atoms: _140  and  _141
REMARK   65  A    between atoms: _147  and  _149
REMARK   66  A    between atoms: _149  and  _150
REMARK   67  A    between atoms: _153  and  _155
REMARK   68  A    between atoms: _155  and  _156
REMARK   69  A    between atoms: _155  and  _158
REMARK   70  A    between atoms: _158  and  _159
REMARK   71  A    between atoms: _164  and  _166
REMARK   72  A    between atoms: _166  and  _167
REMARK   73  A    between atoms: _166  and  _169
REMARK   74  A    between atoms: _169  and  _170
REMARK   75  A    between atoms: _173  and  _175
REMARK   76  A    between atoms: _175  and  _176
REMARK   77  A    between atoms: _175  and  _178
REMARK   78  A    between atoms: _178  and  _179
REMARK   79  A    between atoms: _179  and  _180
REMARK   80  A    between atoms: _185  and  _187
REMARK   81  A    between atoms: _187  and  _188
REMARK   82  A    between atoms: _187  and  _190
REMARK   83  A    between atoms: _190  and  _191
REMARK   84  A    between atoms: _195  and  _196
REMARK   85  A    between atoms: _201  and  _203
REMARK   86  A    between atoms: _203  and  _204
REMARK   87  A    between atoms: _203  and  _206
REMARK   88  A    between atoms: _206  and  _207
REMARK   89  A    between atoms: _212  and  _213
REMARK   90  A    between atoms: _215  and  _217
REMARK   91  A    between atoms: _217  and  _218
REMARK   92  A    between atoms: _217  and  _220
REMARK   93  A    between atoms: _220  and  _221
REMARK   94  A    between atoms: _224  and  _226
REMARK   95  A    between atoms: _226  and  _227
REMARK   96  A    between atoms: _226  and  _229
REMARK   97  A    between atoms: _229  and  _230
REMARK   98  A    between atoms: _232  and  _234
REMARK   99  A    between atoms: _234  and  _235
REMARK  100  A    between atoms: _234  and  _237
REMARK  101  A    between atoms: _237  and  _238
REMARK  102  A    between atoms: _243  and  _245
REMARK  103  A    between atoms: _245  and  _246
REMARK  104  A    between atoms: _245  and  _248
REMARK  105  A    between atoms: _248  and  _249
REMARK  106  A    between atoms: _252  and  _254
REMARK  107  A    between atoms: _254  and  _255
REMARK  108  A    between atoms: _254  and  _257
REMARK  109  A    between atoms: _257  and  _258
REMARK  110  A    between atoms: _269  and  _270
REMARK  111  A    between atoms: _275  and  _277
REMARK  112  A    between atoms: _277  and  _278
REMARK  113  A    between atoms: _277  and  _280
REMARK  114  A    between atoms: _280  and  _281
REMARK  115  A    between atoms: _284  and  _286
REMARK  116  A    between atoms: _286  and  _287
REMARK  117  A    between atoms: _286  and  _289
REMARK  118  A    between atoms: _289  and  _290
REMARK  119  A    between atoms: _295  and  _297
REMARK  120  A    between atoms: _297  and  _298
REMARK  121  A    between atoms: _300  and  _302
REMARK  122  A    between atoms: _302  and  _303
REMARK  123  A    between atoms: _302  and  _305
REMARK  124  A    between atoms: _305  and  _306
REMARK  125  A    between atoms: _316  and  _318
REMARK  126  A    between atoms: _318  and  _319
REMARK  127  A    between atoms: _318  and  _321
REMARK  128  A    between atoms: _321  and  _322
REMARK  129  A    between atoms: _327  and  _328
REMARK  130  A    between atoms: _330  and  _332
REMARK  131  A    between atoms: _332  and  _333
REMARK  132  A    between atoms: _332  and  _335
REMARK  133  A    between atoms: _335  and  _336
REMARK  134  A    between atoms: _339  and  _341
REMARK  135  A    between atoms: _341  and  _342
REMARK  136  A    between atoms: _341  and  _344
REMARK  137  A    between atoms: _344  and  _345
REMARK  138  A    between atoms: _350  and  _352
REMARK  139  A    between atoms: _352  and  _353
REMARK  140  A    between atoms: _352  and  _355
REMARK  141  A    between atoms: _355  and  _356
REMARK  142  A    between atoms: _361  and  _363
REMARK  143  A    between atoms: _363  and  _364
REMARK  144  A    between atoms: _363  and  _366
REMARK  145  A    between atoms: _366  and  _367
REMARK  146  A    between atoms: _367  and  _368
REMARK  147  A    between atoms: _371  and  _373
REMARK  148  A    between atoms: _373  and  _374
REMARK  149  A    between atoms: _376  and  _378
REMARK  150  A    between atoms: _378  and  _379
REMARK  151  A    between atoms: _378  and  _381
REMARK  152  A    between atoms: _381  and  _382
REMARK  153  A    between atoms: _384  and  _386
REMARK  154  A    between atoms: _386  and  _387
REMARK  155  A    between atoms: _386  and  _389
REMARK  156  A    between atoms: _389  and  _390
REMARK  157  A    between atoms: _395  and  _396
REMARK  158  A    between atoms: _398  and  _400
REMARK  159  A    between atoms: _400  and  _401
REMARK  160  A    between atoms: _400  and  _403
REMARK  161  A    between atoms: _403  and  _404
REMARK  162  A    between atoms: _409  and  _411
REMARK  163  A    between atoms: _411  and  _412
REMARK  164  A    between atoms: _414  and  _416
REMARK  165  A    between atoms: _416  and  _417
REMARK  166  A    between atoms: _416  and  _419
REMARK  167  A    between atoms: _419  and  _420
REMARK  168  A    between atoms: _425  and  _427
REMARK  169  A    between atoms: _427  and  _428
REMARK  170  A    between atoms: _427  and  _430
REMARK  171  A    between atoms: _430  and  _431
REMARK  172  A    between atoms: _441  and  _443
REMARK  173  A    between atoms: _443  and  _444
REMARK  174  A    between atoms: _443  and  _446
REMARK  175  A    between atoms: _446  and  _447
REMARK  176  A    between atoms: _452  and  _454
REMARK  177  A    between atoms: _454  and  _455
REMARK  178  A    between atoms: _454  and  _457
REMARK  179  A    between atoms: _457  and  _458
REMARK  180  A    between atoms: _458  and  _459
REMARK  181  A    between atoms: _459  and  _460
REMARK  182  A    between atoms: _460  and  _461
REMARK  183  A    between atoms: _465  and  _467
REMARK  184  A    between atoms: _467  and  _468
REMARK  185  A    between atoms: _467  and  _470
REMARK  186  A    between atoms: _470  and  _471
REMARK  187  A    between atoms: _477  and  _479
REMARK  188  A    between atoms: _479  and  _480
REMARK  189  A    between atoms: _482  and  _484
REMARK  190  A    between atoms: _484  and  _485
REMARK  191  A    between atoms: _484  and  _487
REMARK  192  A    between atoms: _487  and  _488
REMARK  193  A    between atoms: _490  and  _492
REMARK  194  A    between atoms: _492  and  _493
REMARK  195  A    between atoms: _492  and  _495
REMARK  196  A    between atoms: _495  and  _496
REMARK  197  A    between atoms: _496  and  _497
REMARK  198  A    between atoms: _497  and  _498
REMARK  199  A    between atoms: _498  and  _499
REMARK  200  A    between atoms: _503  and  _505
REMARK  201  A    between atoms: _505  and  _506
REMARK  202  A    between atoms: _505  and  _508
REMARK  203  A    between atoms: _508  and  _509
REMARK  204  A    between atoms: _514  and  _516
REMARK  205  A    between atoms: _516  and  _517
REMARK  206  A    between atoms: _516  and  _519
REMARK  207  A    between atoms: _519  and  _520
REMARK  208  A    between atoms: _520  and  _521
REMARK  209  A    between atoms: _521  and  _522
REMARK  210  A    between atoms: _531  and  _533
REMARK  211  A    between atoms: _533  and  _534
REMARK  212  A    between atoms: _533  and  _536
REMARK  213  A    between atoms: _536  and  _537
REMARK  214  A    between atoms: _537  and  _538
REMARK  215  A    between atoms: _543  and  _545
REMARK  216  A    between atoms: _545  and  _546
REMARK  217  A    between atoms: _545  and  _548
REMARK  218  A    between atoms: _548  and  _549
REMARK  219  A    between atoms: _549  and  _550
REMARK  220  A    between atoms: _555  and  _557
REMARK  221  A    between atoms: _557  and  _558
REMARK  222  A    between atoms: _557  and  _560
REMARK  223  A    between atoms: _560  and  _561
REMARK  224  A    between atoms: _564  and  _566
REMARK  225  A    between atoms: _566  and  _567
REMARK  226  A    between atoms: _566  and  _569
REMARK  227  A    between atoms: _569  and  _570
REMARK  228  A    between atoms: _570  and  _571
REMARK  229  A    between atoms: _573  and  _575
REMARK  230  A    between atoms: _575  and  _576
REMARK  231  A    between atoms: _575  and  _578
REMARK  232  A    between atoms: _578  and  _579
REMARK  233  A    between atoms: _581  and  _583
REMARK  234  A    between atoms: _583  and  _584
REMARK  235  A    between atoms: _586  and  _588
REMARK  236  A    between atoms: _588  and  _589
REMARK  237  A    between atoms: _588  and  _591
REMARK  238  A    between atoms: _591  and  _592
REMARK  239  A    between atoms: _597  and  _598
REMARK  240  A    between atoms: _600  and  _602
REMARK  241  A    between atoms: _602  and  _603
REMARK  242  A    between atoms: _602  and  _605
REMARK  243  A    between atoms: _605  and  _606
REMARK  244  A    between atoms: _616  and  _618
REMARK  245  A    between atoms: _618  and  _619
REMARK  246  A    between atoms: _618  and  _621
REMARK  247  A    between atoms: _621  and  _622
REMARK  248  A    between atoms: _625  and  _627
REMARK  249  A    between atoms: _627  and  _628
REMARK  250  A    between atoms: _631  and  _633
REMARK  251  A    between atoms: _633  and  _634
REMARK  252  A    between atoms: _637  and  _639
REMARK  253  A    between atoms: _639  and  _640
REMARK  254  A    between atoms: _639  and  _642
REMARK  255  A    between atoms: _642  and  _643
REMARK  256  A    between atoms: _647  and  _648
REMARK                            x       y       z     vdW  Elec       q    Type
REMARK                         _______ _______ _______ _____ _____    ______ ____
ROOT
ATOM      1  O   HOH     1      25.729  64.709  28.850  0.00  0.00    +0.000 OA
ENDROOT
TORSDOF 0
REMARK  Name = ../refined-set-2016/4uac/4uac_pocket.pdb
REMARK  256 active torsions:
REMARK  status: ('A' for Active; 'I' for Inactive)
REMARK    1  A    between atoms: _1  and  _3
REMARK    2  A    between atoms: _3  and  _4
REMARK    3  A    between atoms: _7  and  _8
REMARK    4  A    between atoms: _13  and  _15
REMARK    5  A    between atoms: _15  and  _16
REMARK    6  A    between atoms: _19  and  _21
REMARK    7  A    between atoms: _21  and  _22
REMARK    8  A    between atoms: _21  and  _24
REMARK    9  A    between atoms: _24  and  _25
REMARK   10  A    between atoms: _25  and  _26
REMARK   11  A    between atoms: _29  and  _31
REMARK   12  A    between atoms: _31  and  _32
REMARK   13  A    between atoms: _31  and  _34
REMARK   14  A    between atoms: _34  and  _35
REMARK   15  A    between atoms: _38  and  _40
REMARK   16  A    between atoms: _40  and  _41
REMARK   17  A    between atoms: _40  and  _43
REMARK   18  A    between atoms: _43  and  _44
REMARK   19  A    between atoms: _46  and  _48
REMARK   20  A    between atoms: _48  and  _49
REMARK   21  A    between atoms: _48  and  _51
REMARK   22  A    between atoms: _51  and  _52
REMARK   23  A    between atoms: _54  and  _56
REMARK   24  A    between atoms: _56  and  _57
REMARK   25  A    between atoms: _56  and  _59
REMARK   26  A    between atoms: _59  and  _60
REMARK   27  A    between atoms: _60  and  _61
REMARK   28  A    between atoms: _64  and  _66
REMARK   29  A    between atoms: _66  and  _67
REMARK   30  A    between atoms: _66  and  _69
REMARK   31  A    between atoms: _69  and  _70
REMARK   32  A    between atoms: _72  and  _74
REMARK   33  A    between atoms: _74  and  _75
REMARK   34  A    between atoms: _74  and  _77
REMARK   35  A    between atoms: _77  and  _78
REMARK   36  A    between atoms: _81  and  _83
REMARK   37  A    between atoms: _83  and  _84
REMARK   38  A    between atoms: _87  and  _89
REMARK   39  A    between atoms: _89  and  _90
REMARK   40  A    between atoms: _89  and  _92
REMARK   41  A    between atoms: _92  and  _93
REMARK   42  A    between atoms: _93  and  _94
REMARK   43  A    between atoms: _94  and  _95
REMARK   44  A    between atoms: _95  and  _96
REMARK   45  A    between atoms: _100  and  _102
REMARK   46  A    between atoms: _102  and  _103
REMARK   47  A    between atoms: _102  and  _105
REMARK   48  A    between atoms: _105  and  _106
REMARK   49  A    between atoms: _109  and  _111
REMARK   50  A    between atoms: _111  and  _112
REMARK   51  A    between atoms: _111  and  _114
REMARK   52  A    between atoms: _117  and  _119
REMARK   53  A    between atoms: _119  and  _120
REMARK   54  A    between atoms: _119  and  _122
REMARK   55  A    between atoms: _122  and  _123
REMARK   56  A    between atoms: _126  and  _128
REMARK   57  A    between atoms: _128  and  _129
REMARK   58  A    between atoms: _128  and  _131
REMARK   59  A    between atoms: _131  and  _132
REMARK   60  A    between atoms: _132  and  _133
REMARK   61  A    between atoms: _135  and  _137
REMARK   62  A    between atoms: _137  and  _138
REMARK   63  A    between atoms: _137  and  _140
REMARK   64  A    between atoms: _140  and  _141
REMARK   65  A    between atoms: _147  and  _149
REMARK   66  A    between atoms: _149  and  _150
REMARK   67  A    between atoms: _153  and  _155
REMARK   68  A    between atoms: _155  and  _156
REMARK   69  A    between atoms: _155  and  _158
REMARK   70  A    between atoms: _158  and  _159
REMARK   71  A    between atoms: _164  and  _166
REMARK   72  A    between atoms: _166  and  _167
REMARK   73  A    between atoms: _166  and  _169
REMARK   74  A    between atoms: _169  and  _170
REMARK   75  A    between atoms: _173  and  _175
REMARK   76  A    between atoms: _175  and  _176
REMARK   77  A    between atoms: _175  and  _178
REMARK   78  A    between atoms: _178  and  _179
REMARK   79  A    between atoms: _179  and  _180
REMARK   80  A    between atoms: _185  and  _187
REMARK   81  A    between atoms: _187  and  _188
REMARK   82  A    between atoms: _187  and  _190
REMARK   83  A    between atoms: _190  and  _191
REMARK   84  A    between atoms: _195  and  _196
REMARK   85  A    between atoms: _201  and  _203
REMARK   86  A    between atoms: _203  and  _204
REMARK   87  A    between atoms: _203  and  _206
REMARK   88  A    between atoms: _206  and  _207
REMARK   89  A    between atoms: _212  and  _213
REMARK   90  A    between atoms: _215  and  _217
REMARK   91  A    between atoms: _217  and  _218
REMARK   92  A    between atoms: _217  and  _220
REMARK   93  A    between atoms: _220  and  _221
REMARK   94  A    between atoms: _224  and  _226
REMARK   95  A    between atoms: _226  and  _227
REMARK   96  A    between atoms: _226  and  _229
REMARK   97  A    between atoms: _229  and  _230
REMARK   98  A    between atoms: _232  and  _234
REMARK   99  A    between atoms: _234  and  _235
REMARK  100  A    between atoms: _234  and  _237
REMARK  101  A    between atoms: _237  and  _238
REMARK  102  A    between atoms: _243  and  _245
REMARK  103  A    between atoms: _245  and  _246
REMARK  104  A    between atoms: _245  and  _248
REMARK  105  A    between atoms: _248  and  _249
REMARK  106  A    between atoms: _252  and  _254
REMARK  107  A    between atoms: _254  and  _255
REMARK  108  A    between atoms: _254  and  _257
REMARK  109  A    between atoms: _257  and  _258
REMARK  110  A    between atoms: _269  and  _270
REMARK  111  A    between atoms: _275  and  _277
REMARK  112  A    between atoms: _277  and  _278
REMARK  113  A    between atoms: _277  and  _280
REMARK  114  A    between atoms: _280  and  _281
REMARK  115  A    between atoms: _284  and  _286
REMARK  116  A    between atoms: _286  and  _287
REMARK  117  A    between atoms: _286  and  _289
REMARK  118  A    between atoms: _289  and  _290
REMARK  119  A    between atoms: _295  and  _297
REMARK  120  A    between atoms: _297  and  _298
REMARK  121  A    between atoms: _300  and  _302
REMARK  122  A    between atoms: _302  and  _303
REMARK  123  A    between atoms: _302  and  _305
REMARK  124  A    between atoms: _305  and  _306
REMARK  125  A    between atoms: _316  and  _318
REMARK  126  A    between atoms: _318  and  _319
REMARK  127  A    between atoms: _318  and  _321
REMARK  128  A    between atoms: _321  and  _322
REMARK  129  A    between atoms: _327  and  _328
REMARK  130  A    between atoms: _330  and  _332
REMARK  131  A    between atoms: _332  and  _333
REMARK  132  A    between atoms: _332  and  _335
REMARK  133  A    between atoms: _335  and  _336
REMARK  134  A    between atoms: _339  and  _341
REMARK  135  A    between atoms: _341  and  _342
REMARK  136  A    between atoms: _341  and  _344
REMARK  137  A    between atoms: _344  and  _345
REMARK  138  A    between atoms: _350  and  _352
REMARK  139  A    between atoms: _352  and  _353
REMARK  140  A    between atoms: _352  and  _355
REMARK  141  A    between atoms: _355  and  _356
REMARK  142  A    between atoms: _361  and  _363
REMARK  143  A    between atoms: _363  and  _364
REMARK  144  A    between atoms: _363  and  _366
REMARK  145  A    between atoms: _366  and  _367
REMARK  146  A    between atoms: _367  and  _368
REMARK  147  A    between atoms: _371  and  _373
REMARK  148  A    between atoms: _373  and  _374
REMARK  149  A    between atoms: _376  and  _378
REMARK  150  A    between atoms: _378  and  _379
REMARK  151  A    between atoms: _378  and  _381
REMARK  152  A    between atoms: _381  and  _382
REMARK  153  A    between atoms: _384  and  _386
REMARK  154  A    between atoms: _386  and  _387
REMARK  155  A    between atoms: _386  and  _389
REMARK  156  A    between atoms: _389  and  _390
REMARK  157  A    between atoms: _395  and  _396
REMARK  158  A    between atoms: _398  and  _400
REMARK  159  A    between atoms: _400  and  _401
REMARK  160  A    between atoms: _400  and  _403
REMARK  161  A    between atoms: _403  and  _404
REMARK  162  A    between atoms: _409  and  _411
REMARK  163  A    between atoms: _411  and  _412
REMARK  164  A    between atoms: _414  and  _416
REMARK  165  A    between atoms: _416  and  _417
REMARK  166  A    between atoms: _416  and  _419
REMARK  167  A    between atoms: _419  and  _420
REMARK  168  A    between atoms: _425  and  _427
REMARK  169  A    between atoms: _427  and  _428
REMARK  170  A    between atoms: _427  and  _430
REMARK  171  A    between atoms: _430  and  _431
REMARK  172  A    between atoms: _441  and  _443
REMARK  173  A    between atoms: _443  and  _444
REMARK  174  A    between atoms: _443  and  _446
REMARK  175  A    between atoms: _446  and  _447
REMARK  176  A    between atoms: _452  and  _454
REMARK  177  A    between atoms: _454  and  _455
REMARK  178  A    between atoms: _454  and  _457
REMARK  179  A    between atoms: _457  and  _458
REMARK  180  A    between atoms: _458  and  _459
REMARK  181  A    between atoms: _459  and  _460
REMARK  182  A    between atoms: _460  and  _461
REMARK  183  A    between atoms: _465  and  _467
REMARK  184  A    between atoms: _467  and  _468
REMARK  185  A    between atoms: _467  and  _470
REMARK  186  A    between atoms: _470  and  _471
REMARK  187  A    between atoms: _477  and  _479
REMARK  188  A    between atoms: _479  and  _480
REMARK  189  A    between atoms: _482  and  _484
REMARK  190  A    between atoms: _484  and  _485
REMARK  191  A    between atoms: _484  and  _487
REMARK  192  A    between atoms: _487  and  _488
REMARK  193  A    between atoms: _490  and  _492
REMARK  194  A    between atoms: _492  and  _493
REMARK  195  A    between atoms: _492  and  _495
REMARK  196  A    between atoms: _495  and  _496
REMARK  197  A    between atoms: _496  and  _497
REMARK  198  A    between atoms: _497  and  _498
REMARK  199  A    between atoms: _498  and  _499
REMARK  200  A    between atoms: _503  and  _505
REMARK  201  A    between atoms: _505  and  _506
REMARK  202  A    between atoms: _505  and  _508
REMARK  203  A    between atoms: _508  and  _509
REMARK  204  A    between atoms: _514  and  _516
REMARK  205  A    between atoms: _516  and  _517
REMARK  206  A    between atoms: _516  and  _519
REMARK  207  A    between atoms: _519  and  _520
REMARK  208  A    between atoms: _520  and  _521
REMARK  209  A    between atoms: _521  and  _522
REMARK  210  A    between atoms: _531  and  _533
REMARK  211  A    between atoms: _533  and  _534
REMARK  212  A    between atoms: _533  and  _536
REMARK  213  A    between atoms: _536  and  _537
REMARK  214  A    between atoms: _537  and  _538
REMARK  215  A    between atoms: _543  and  _545
REMARK  216  A    between atoms: _545  and  _546
REMARK  217  A    between atoms: _545  and  _548
REMARK  218  A    between atoms: _548  and  _549
REMARK  219  A    between atoms: _549  and  _550
REMARK  220  A    between atoms: _555  and  _557
REMARK  221  A    between atoms: _557  and  _558
REMARK  222  A    between atoms: _557  and  _560
REMARK  223  A    between atoms: _560  and  _561
REMARK  224  A    between atoms: _564  and  _566
REMARK  225  A    between atoms: _566  and  _567
REMARK  226  A    between atoms: _566  and  _569
REMARK  227  A    between atoms: _569  and  _570
REMARK  228  A    between atoms: _570  and  _571
REMARK  229  A    between atoms: _573  and  _575
REMARK  230  A    between atoms: _575  and  _576
REMARK  231  A    between atoms: _575  and  _578
REMARK  232  A    between atoms: _578  and  _579
REMARK  233  A    between atoms: _581  and  _583
REMARK  234  A    between atoms: _583  and  _584
REMARK  235  A    between atoms: _586  and  _588
REMARK  236  A    between atoms: _588  and  _589
REMARK  237  A    between atoms: _588  and  _591
REMARK  238  A    between atoms: _591  and  _592
REMARK  239  A    between atoms: _597  and  _598
REMARK  240  A    between atoms: _600  and  _602
REMARK  241  A    between atoms: _602  and  _603
REMARK  242  A    between atoms: _602  and  _605
REMARK  243  A    between atoms: _605  and  _606
REMARK  244  A    between atoms: _616  and  _618
REMARK  245  A    between atoms: _618  and  _619
REMARK  246  A    between atoms: _618  and  _621
REMARK  247  A    between atoms: _621  and  _622
REMARK  248  A    between atoms: _625  and  _627
REMARK  249  A    between atoms: _627  and  _628
REMARK  250  A    between atoms: _631  and  _633
REMARK  251  A    between atoms: _633  and  _634
REMARK  252  A    between atoms: _637  and  _639
REMARK  253  A    between atoms: _639  and  _640
REMARK  254  A    between atoms: _639  and  _642
REMARK  255  A    between atoms: _642  and  _643
REMARK  256  A    between atoms: _647  and  _648
REMARK                            x       y       z     vdW  Elec       q    Type
REMARK                         _______ _______ _______ _____ _____    ______ ____
ROOT
ATOM      1  O   HOH     1      20.472  74.275  33.185  0.00  0.00    +0.000 OA
ENDROOT
TORSDOF 0
