REMARK  Name = ../refined-set-2016/3p58/3p58_pocket.pdb
REMARK  153 active torsions:
REMARK  status: ('A' for Active; 'I' for Inactive)
REMARK    1  A    between atoms: _1  and  _3
REMARK    2  A    between atoms: _3  and  _4
REMARK    3  A    between atoms: _3  and  _6
REMARK    4  A    between atoms: _6  and  _7
REMARK    5  A    between atoms: _17  and  _19
REMARK    6  A    between atoms: _19  and  _20
REMARK    7  A    between atoms: _19  and  _22
REMARK    8  A    between atoms: _22  and  _23
REMARK    9  A    between atoms: _28  and  _29
REMARK   10  A    between atoms: _31  and  _33
REMARK   11  A    between atoms: _33  and  _34
REMARK   12  A    between atoms: _33  and  _36
REMARK   13  A    between atoms: _36  and  _37
REMARK   14  A    between atoms: _39  and  _41
REMARK   15  A    between atoms: _41  and  _42
REMARK   16  A    between atoms: _41  and  _44
REMARK   17  A    between atoms: _44  and  _45
REMARK   18  A    between atoms: _48  and  _50
REMARK   19  A    between atoms: _50  and  _51
REMARK   20  A    between atoms: _50  and  _53
REMARK   21  A    between atoms: _53  and  _54
REMARK   22  A    between atoms: _59  and  _61
REMARK   23  A    between atoms: _61  and  _62
REMARK   24  A    between atoms: _64  and  _66
REMARK   25  A    between atoms: _66  and  _67
REMARK   26  A    between atoms: _66  and  _69
REMARK   27  A    between atoms: _69  and  _70
REMARK   28  A    between atoms: _75  and  _77
REMARK   29  A    between atoms: _77  and  _78
REMARK   30  A    between atoms: _81  and  _83
REMARK   31  A    between atoms: _83  and  _84
REMARK   32  A    between atoms: _83  and  _86
REMARK   33  A    between atoms: _86  and  _87
REMARK   34  A    between atoms: _93  and  _95
REMARK   35  A    between atoms: _95  and  _96
REMARK   36  A    between atoms: _95  and  _98
REMARK   37  A    between atoms: _98  and  _99
REMARK   38  A    between atoms: _104  and  _106
REMARK   39  A    between atoms: _106  and  _107
REMARK   40  A    between atoms: _106  and  _109
REMARK   41  A    between atoms: _112  and  _114
REMARK   42  A    between atoms: _114  and  _115
REMARK   43  A    between atoms: _114  and  _117
REMARK   44  A    between atoms: _117  and  _118
REMARK   45  A    between atoms: _121  and  _123
REMARK   46  A    between atoms: _123  and  _124
REMARK   47  A    between atoms: _123  and  _126
REMARK   48  A    between atoms: _126  and  _127
REMARK   49  A    between atoms: _127  and  _128
REMARK   50  A    between atoms: _133  and  _135
REMARK   51  A    between atoms: _135  and  _136
REMARK   52  A    between atoms: _135  and  _138
REMARK   53  A    between atoms: _138  and  _139
REMARK   54  A    between atoms: _145  and  _147
REMARK   55  A    between atoms: _158  and  _161
REMARK   56  A    between atoms: _161  and  _162
REMARK   57  A    between atoms: _170  and  _171
REMARK   58  A    between atoms: _179  and  _181
REMARK   59  A    between atoms: _181  and  _182
REMARK   60  A    between atoms: _181  and  _184
REMARK   61  A    between atoms: _184  and  _185
REMARK   62  A    between atoms: _185  and  _186
REMARK   63  A    between atoms: _189  and  _191
REMARK   64  A    between atoms: _191  and  _192
REMARK   65  A    between atoms: _191  and  _194
REMARK   66  A    between atoms: _194  and  _195
REMARK   67  A    between atoms: _195  and  _196
REMARK   68  A    between atoms: _199  and  _201
REMARK   69  A    between atoms: _201  and  _202
REMARK   70  A    between atoms: _201  and  _204
REMARK   71  A    between atoms: _204  and  _205
REMARK   72  A    between atoms: _208  and  _210
REMARK   73  A    between atoms: _210  and  _211
REMARK   74  A    between atoms: _210  and  _213
REMARK   75  A    between atoms: _213  and  _214
REMARK   76  A    between atoms: _215  and  ZN_425
REMARK   77  A    between atoms: _219  and  _221
REMARK   78  A    between atoms: _221  and  _222
REMARK   79  A    between atoms: _221  and  _224
REMARK   80  A    between atoms: _224  and  _225
REMARK   81  A    between atoms: _228  and  _230
REMARK   82  A    between atoms: _230  and  _231
REMARK   83  A    between atoms: _230  and  _233
REMARK   84  A    between atoms: _236  and  _238
REMARK   85  A    between atoms: _238  and  _239
REMARK   86  A    between atoms: _238  and  _241
REMARK   87  A    between atoms: _241  and  _242
REMARK   88  A    between atoms: _247  and  _249
REMARK   89  A    between atoms: _249  and  _250
REMARK   90  A    between atoms: _249  and  _252
REMARK   91  A    between atoms: _252  and  _253
REMARK   92  A    between atoms: _259  and  _261
REMARK   93  A    between atoms: _261  and  _262
REMARK   94  A    between atoms: _261  and  _264
REMARK   95  A    between atoms: _267  and  _269
REMARK   96  A    between atoms: _269  and  _270
REMARK   97  A    between atoms: _269  and  _272
REMARK   98  A    between atoms: _272  and  _273
REMARK   99  A    between atoms: _276  and  _278
REMARK  100  A    between atoms: _278  and  _279
REMARK  101  A    between atoms: _282  and  _284
REMARK  102  A    between atoms: _284  and  _285
REMARK  103  A    between atoms: _284  and  _287
REMARK  104  A    between atoms: _290  and  _292
REMARK  105  A    between atoms: _292  and  _293
REMARK  106  A    between atoms: _292  and  _295
REMARK  107  A    between atoms: _295  and  _296
REMARK  108  A    between atoms: _299  and  _301
REMARK  109  A    between atoms: _301  and  _302
REMARK  110  A    between atoms: _301  and  _304
REMARK  111  A    between atoms: _304  and  _305
REMARK  112  A    between atoms: _307  and  _309
REMARK  113  A    between atoms: _309  and  _310
REMARK  114  A    between atoms: _309  and  _312
REMARK  115  A    between atoms: _312  and  _313
REMARK  116  A    between atoms: _316  and  _318
REMARK  117  A    between atoms: _318  and  _319
REMARK  118  A    between atoms: _318  and  _321
REMARK  119  A    between atoms: _321  and  _322
REMARK  120  A    between atoms: _325  and  _327
REMARK  121  A    between atoms: _327  and  _328
REMARK  122  A    between atoms: _327  and  _330
REMARK  123  A    between atoms: _330  and  _331
REMARK  124  A    between atoms: _335  and  _336
REMARK  125  A    between atoms: _342  and  _343
REMARK  126  A    between atoms: _348  and  _350
REMARK  127  A    between atoms: _350  and  _351
REMARK  128  A    between atoms: _350  and  _353
REMARK  129  A    between atoms: _353  and  _354
REMARK  130  A    between atoms: _357  and  _359
REMARK  131  A    between atoms: _359  and  _360
REMARK  132  A    between atoms: _359  and  _362
REMARK  133  A    between atoms: _362  and  _363
REMARK  134  A    between atoms: _366  and  _368
REMARK  135  A    between atoms: _368  and  _369
REMARK  136  A    between atoms: _368  and  _371
REMARK  137  A    between atoms: _373  and  _375
REMARK  138  A    between atoms: _375  and  _376
REMARK  139  A    between atoms: _375  and  _378
REMARK  140  A    between atoms: _381  and  _383
REMARK  141  A    between atoms: _383  and  _384
REMARK  142  A    between atoms: _383  and  _386
REMARK  143  A    between atoms: _386  and  _387
REMARK  144  A    between atoms: _397  and  _399
REMARK  145  A    between atoms: _399  and  _400
REMARK  146  A    between atoms: _399  and  _402
REMARK  147  A    between atoms: _402  and  _403
REMARK  148  A    between atoms: _408  and  _410
REMARK  149  A    between atoms: _410  and  _411
REMARK  150  A    between atoms: _410  and  _413
REMARK  151  A    between atoms: _413  and  _414
REMARK  152  A    between atoms: _414  and  _415
REMARK  153  A    between atoms: _415  and  _416
REMARK                            x       y       z     vdW  Elec       q    Type
REMARK                         _______ _______ _______ _____ _____    ______ ____
ROOT
ATOM      1  CG  TRP A   1       5.994   0.074  12.183  0.00  0.00    -0.002 A 
ATOM      2  CD2 TRP A   1       4.642  -0.385  12.078  0.00  0.00    +0.013 A 
ATOM      3  CE3 TRP A   1       4.014  -1.608  12.304  0.00  0.00    +0.001 A 
ATOM      4  CZ3 TRP A   1       2.649  -1.696  12.111  0.00  0.00    +0.000 A 
ATOM      5  CH2 TRP A   1       1.900  -0.572  11.707  0.00  0.00    +0.001 A 
ATOM      6  CZ2 TRP A   1       2.483   0.631  11.481  0.00  0.00    +0.017 A 
ATOM      7  CE2 TRP A   1       3.860   0.720  11.674  0.00  0.00    +0.056 A 
ATOM      8  NE1 TRP A   1       4.701   1.797  11.525  0.00  0.00    -0.352 N 
ATOM      9  HE1 TRP A   1       4.415   2.754  11.234  0.00  0.00    +0.166 HD
ATOM     10  CD1 TRP A   1       5.980   1.402  11.823  0.00  0.00    +0.068 A 
ENDROOT
BRANCH   1  11
ATOM     11  CB  TRP A   1       7.184  -0.744  12.578  0.00  0.00    +0.053 C 
BRANCH  11  12
ATOM     12  CA  TRP A   1       7.902  -1.422  11.401  0.00  0.00    +0.137 C 
BRANCH  12  13
ATOM     13  N   TRP A   1       8.652  -0.462  10.599  0.00  0.00    -0.239 NA
ATOM     14  H   TRP A   1       8.575   0.551  10.821  0.00  0.00    +0.142 HD
ENDBRANCH  12  13
BRANCH  12  15
ATOM     15  C   TRP A   1       6.904  -2.201  10.557  0.00  0.00    +0.224 C 
ATOM     16  O   TRP A   1       6.405  -1.752   9.537  0.00  0.00    -0.287 OA
ENDBRANCH  12  15
ENDBRANCH  11  12
ENDBRANCH   1  11
TORSDOF 4
REMARK  Name = ../refined-set-2016/3p58/3p58_pocket.pdb
REMARK  153 active torsions:
REMARK  status: ('A' for Active; 'I' for Inactive)
REMARK    1  A    between atoms: _1  and  _3
REMARK    2  A    between atoms: _3  and  _4
REMARK    3  A    between atoms: _3  and  _6
REMARK    4  A    between atoms: _6  and  _7
REMARK    5  A    between atoms: _17  and  _19
REMARK    6  A    between atoms: _19  and  _20
REMARK    7  A    between atoms: _19  and  _22
REMARK    8  A    between atoms: _22  and  _23
REMARK    9  A    between atoms: _28  and  _29
REMARK   10  A    between atoms: _31  and  _33
REMARK   11  A    between atoms: _33  and  _34
REMARK   12  A    between atoms: _33  and  _36
REMARK   13  A    between atoms: _36  and  _37
REMARK   14  A    between atoms: _39  and  _41
REMARK   15  A    between atoms: _41  and  _42
REMARK   16  A    between atoms: _41  and  _44
REMARK   17  A    between atoms: _44  and  _45
REMARK   18  A    between atoms: _48  and  _50
REMARK   19  A    between atoms: _50  and  _51
REMARK   20  A    between atoms: _50  and  _53
REMARK   21  A    between atoms: _53  and  _54
REMARK   22  A    between atoms: _59  and  _61
REMARK   23  A    between atoms: _61  and  _62
REMARK   24  A    between atoms: _64  and  _66
REMARK   25  A    between atoms: _66  and  _67
REMARK   26  A    between atoms: _66  and  _69
REMARK   27  A    between atoms: _69  and  _70
REMARK   28  A    between atoms: _75  and  _77
REMARK   29  A    between atoms: _77  and  _78
REMARK   30  A    between atoms: _81  and  _83
REMARK   31  A    between atoms: _83  and  _84
REMARK   32  A    between atoms: _83  and  _86
REMARK   33  A    between atoms: _86  and  _87
REMARK   34  A    between atoms: _93  and  _95
REMARK   35  A    between atoms: _95  and  _96
REMARK   36  A    between atoms: _95  and  _98
REMARK   37  A    between atoms: _98  and  _99
REMARK   38  A    between atoms: _104  and  _106
REMARK   39  A    between atoms: _106  and  _107
REMARK   40  A    between atoms: _106  and  _109
REMARK   41  A    between atoms: _112  and  _114
REMARK   42  A    between atoms: _114  and  _115
REMARK   43  A    between atoms: _114  and  _117
REMARK   44  A    between atoms: _117  and  _118
REMARK   45  A    between atoms: _121  and  _123
REMARK   46  A    between atoms: _123  and  _124
REMARK   47  A    between atoms: _123  and  _126
REMARK   48  A    between atoms: _126  and  _127
REMARK   49  A    between atoms: _127  and  _128
REMARK   50  A    between atoms: _133  and  _135
REMARK   51  A    between atoms: _135  and  _136
REMARK   52  A    between atoms: _135  and  _138
REMARK   53  A    between atoms: _138  and  _139
REMARK   54  A    between atoms: _145  and  _147
REMARK   55  A    between atoms: _158  and  _161
REMARK   56  A    between atoms: _161  and  _162
REMARK   57  A    between atoms: _170  and  _171
REMARK   58  A    between atoms: _179  and  _181
REMARK   59  A    between atoms: _181  and  _182
REMARK   60  A    between atoms: _181  and  _184
REMARK   61  A    between atoms: _184  and  _185
REMARK   62  A    between atoms: _185  and  _186
REMARK   63  A    between atoms: _189  and  _191
REMARK   64  A    between atoms: _191  and  _192
REMARK   65  A    between atoms: _191  and  _194
REMARK   66  A    between atoms: _194  and  _195
REMARK   67  A    between atoms: _195  and  _196
REMARK   68  A    between atoms: _199  and  _201
REMARK   69  A    between atoms: _201  and  _202
REMARK   70  A    between atoms: _201  and  _204
REMARK   71  A    between atoms: _204  and  _205
REMARK   72  A    between atoms: _208  and  _210
REMARK   73  A    between atoms: _210  and  _211
REMARK   74  A    between atoms: _210  and  _213
REMARK   75  A    between atoms: _213  and  _214
REMARK   76  A    between atoms: _215  and  ZN_425
REMARK   77  A    between atoms: _219  and  _221
REMARK   78  A    between atoms: _221  and  _222
REMARK   79  A    between atoms: _221  and  _224
REMARK   80  A    between atoms: _224  and  _225
REMARK   81  A    between atoms: _228  and  _230
REMARK   82  A    between atoms: _230  and  _231
REMARK   83  A    between atoms: _230  and  _233
REMARK   84  A    between atoms: _236  and  _238
REMARK   85  A    between atoms: _238  and  _239
REMARK   86  A    between atoms: _238  and  _241
REMARK   87  A    between atoms: _241  and  _242
REMARK   88  A    between atoms: _247  and  _249
REMARK   89  A    between atoms: _249  and  _250
REMARK   90  A    between atoms: _249  and  _252
REMARK   91  A    between atoms: _252  and  _253
REMARK   92  A    between atoms: _259  and  _261
REMARK   93  A    between atoms: _261  and  _262
REMARK   94  A    between atoms: _261  and  _264
REMARK   95  A    between atoms: _267  and  _269
REMARK   96  A    between atoms: _269  and  _270
REMARK   97  A    between atoms: _269  and  _272
REMARK   98  A    between atoms: _272  and  _273
REMARK   99  A    between atoms: _276  and  _278
REMARK  100  A    between atoms: _278  and  _279
REMARK  101  A    between atoms: _282  and  _284
REMARK  102  A    between atoms: _284  and  _285
REMARK  103  A    between atoms: _284  and  _287
REMARK  104  A    between atoms: _290  and  _292
REMARK  105  A    between atoms: _292  and  _293
REMARK  106  A    between atoms: _292  and  _295
REMARK  107  A    between atoms: _295  and  _296
REMARK  108  A    between atoms: _299  and  _301
REMARK  109  A    between atoms: _301  and  _302
REMARK  110  A    between atoms: _301  and  _304
REMARK  111  A    between atoms: _304  and  _305
REMARK  112  A    between atoms: _307  and  _309
REMARK  113  A    between atoms: _309  and  _310
REMARK  114  A    between atoms: _309  and  _312
REMARK  115  A    between atoms: _312  and  _313
REMARK  116  A    between atoms: _316  and  _318
REMARK  117  A    between atoms: _318  and  _319
REMARK  118  A    between atoms: _318  and  _321
REMARK  119  A    between atoms: _321  and  _322
REMARK  120  A    between atoms: _325  and  _327
REMARK  121  A    between atoms: _327  and  _328
REMARK  122  A    between atoms: _327  and  _330
REMARK  123  A    between atoms: _330  and  _331
REMARK  124  A    between atoms: _335  and  _336
REMARK  125  A    between atoms: _342  and  _343
REMARK  126  A    between atoms: _348  and  _350
REMARK  127  A    between atoms: _350  and  _351
REMARK  128  A    between atoms: _350  and  _353
REMARK  129  A    between atoms: _353  and  _354
REMARK  130  A    between atoms: _357  and  _359
REMARK  131  A    between atoms: _359  and  _360
REMARK  132  A    between atoms: _359  and  _362
REMARK  133  A    between atoms: _362  and  _363
REMARK  134  A    between atoms: _366  and  _368
REMARK  135  A    between atoms: _368  and  _369
REMARK  136  A    between atoms: _368  and  _371
REMARK  137  A    between atoms: _373  and  _375
REMARK  138  A    between atoms: _375  and  _376
REMARK  139  A    between atoms: _375  and  _378
REMARK  140  A    between atoms: _381  and  _383
REMARK  141  A    between atoms: _383  and  _384
REMARK  142  A    between atoms: _383  and  _386
REMARK  143  A    between atoms: _386  and  _387
REMARK  144  A    between atoms: _397  and  _399
REMARK  145  A    between atoms: _399  and  _400
REMARK  146  A    between atoms: _399  and  _402
REMARK  147  A    between atoms: _402  and  _403
REMARK  148  A    between atoms: _408  and  _410
REMARK  149  A    between atoms: _410  and  _411
REMARK  150  A    between atoms: _410  and  _413
REMARK  151  A    between atoms: _413  and  _414
REMARK  152  A    between atoms: _414  and  _415
REMARK  153  A    between atoms: _415  and  _416
REMARK                            x       y       z     vdW  Elec       q    Type
REMARK                         _______ _______ _______ _____ _____    ______ ____
ROOT
ATOM      1  CG  TYR A   1       2.184  -6.997  11.770  0.00  0.00    -0.020 A 
ATOM      2  CD2 TYR A   1       1.775  -7.048  13.093  0.00  0.00    -0.001 A 
ATOM      3  CE2 TYR A   1       0.936  -6.070  13.603  0.00  0.00    +0.036 A 
ATOM      4  CZ  TYR A   1       0.457  -5.062  12.782  0.00  0.00    +0.134 A 
ATOM      5  CE1 TYR A   1       0.845  -4.970  11.461  0.00  0.00    +0.036 A 
ATOM      6  CD1 TYR A   1       1.719  -5.947  10.975  0.00  0.00    -0.001 A 
ENDROOT
BRANCH   4   7
ATOM      7  OH  TYR A   1      -0.397  -4.087  13.233  0.00  0.00    -0.506 OA
ATOM      8  HH  TYR A   1      -0.608  -4.250  14.186  0.00  0.00    +0.292 HD
ENDBRANCH   4   7
BRANCH   1   9
ATOM      9  CB  TYR A   1       3.126  -8.059  11.202  0.00  0.00    +0.051 C 
BRANCH   9  10
ATOM     10  CA  TYR A   1       4.590  -7.769  11.486  0.00  0.00    +0.137 C 
BRANCH  10  11
ATOM     11  N   TYR A   1       5.010  -6.590  10.748  0.00  0.00    -0.239 NA
ATOM     12  H   TYR A   1       5.085  -6.652   9.713  0.00  0.00    +0.142 HD
ENDBRANCH  10  11
BRANCH  10  13
ATOM     13  C   TYR A   1       5.436  -8.976  11.108  0.00  0.00    +0.224 C 
ATOM     14  O   TYR A   1       5.083 -10.109  11.387  0.00  0.00    -0.287 OA
ENDBRANCH  10  13
ENDBRANCH   9  10
ENDBRANCH   1   9
TORSDOF 5
REMARK  Name = ../refined-set-2016/3p58/3p58_pocket.pdb
REMARK  153 active torsions:
REMARK  status: ('A' for Active; 'I' for Inactive)
REMARK    1  A    between atoms: _1  and  _3
REMARK    2  A    between atoms: _3  and  _4
REMARK    3  A    between atoms: _3  and  _6
REMARK    4  A    between atoms: _6  and  _7
REMARK    5  A    between atoms: _17  and  _19
REMARK    6  A    between atoms: _19  and  _20
REMARK    7  A    between atoms: _19  and  _22
REMARK    8  A    between atoms: _22  and  _23
REMARK    9  A    between atoms: _28  and  _29
REMARK   10  A    between atoms: _31  and  _33
REMARK   11  A    between atoms: _33  and  _34
REMARK   12  A    between atoms: _33  and  _36
REMARK   13  A    between atoms: _36  and  _37
REMARK   14  A    between atoms: _39  and  _41
REMARK   15  A    between atoms: _41  and  _42
REMARK   16  A    between atoms: _41  and  _44
REMARK   17  A    between atoms: _44  and  _45
REMARK   18  A    between atoms: _48  and  _50
REMARK   19  A    between atoms: _50  and  _51
REMARK   20  A    between atoms: _50  and  _53
REMARK   21  A    between atoms: _53  and  _54
REMARK   22  A    between atoms: _59  and  _61
REMARK   23  A    between atoms: _61  and  _62
REMARK   24  A    between atoms: _64  and  _66
REMARK   25  A    between atoms: _66  and  _67
REMARK   26  A    between atoms: _66  and  _69
REMARK   27  A    between atoms: _69  and  _70
REMARK   28  A    between atoms: _75  and  _77
REMARK   29  A    between atoms: _77  and  _78
REMARK   30  A    between atoms: _81  and  _83
REMARK   31  A    between atoms: _83  and  _84
REMARK   32  A    between atoms: _83  and  _86
REMARK   33  A    between atoms: _86  and  _87
REMARK   34  A    between atoms: _93  and  _95
REMARK   35  A    between atoms: _95  and  _96
REMARK   36  A    between atoms: _95  and  _98
REMARK   37  A    between atoms: _98  and  _99
REMARK   38  A    between atoms: _104  and  _106
REMARK   39  A    between atoms: _106  and  _107
REMARK   40  A    between atoms: _106  and  _109
REMARK   41  A    between atoms: _112  and  _114
REMARK   42  A    between atoms: _114  and  _115
REMARK   43  A    between atoms: _114  and  _117
REMARK   44  A    between atoms: _117  and  _118
REMARK   45  A    between atoms: _121  and  _123
REMARK   46  A    between atoms: _123  and  _124
REMARK   47  A    between atoms: _123  and  _126
REMARK   48  A    between atoms: _126  and  _127
REMARK   49  A    between atoms: _127  and  _128
REMARK   50  A    between atoms: _133  and  _135
REMARK   51  A    between atoms: _135  and  _136
REMARK   52  A    between atoms: _135  and  _138
REMARK   53  A    between atoms: _138  and  _139
REMARK   54  A    between atoms: _145  and  _147
REMARK   55  A    between atoms: _158  and  _161
REMARK   56  A    between atoms: _161  and  _162
REMARK   57  A    between atoms: _170  and  _171
REMARK   58  A    between atoms: _179  and  _181
REMARK   59  A    between atoms: _181  and  _182
REMARK   60  A    between atoms: _181  and  _184
REMARK   61  A    between atoms: _184  and  _185
REMARK   62  A    between atoms: _185  and  _186
REMARK   63  A    between atoms: _189  and  _191
REMARK   64  A    between atoms: _191  and  _192
REMARK   65  A    between atoms: _191  and  _194
REMARK   66  A    between atoms: _194  and  _195
REMARK   67  A    between atoms: _195  and  _196
REMARK   68  A    between atoms: _199  and  _201
REMARK   69  A    between atoms: _201  and  _202
REMARK   70  A    between atoms: _201  and  _204
REMARK   71  A    between atoms: _204  and  _205
REMARK   72  A    between atoms: _208  and  _210
REMARK   73  A    between atoms: _210  and  _211
REMARK   74  A    between atoms: _210  and  _213
REMARK   75  A    between atoms: _213  and  _214
REMARK   76  A    between atoms: _215  and  ZN_425
REMARK   77  A    between atoms: _219  and  _221
REMARK   78  A    between atoms: _221  and  _222
REMARK   79  A    between atoms: _221  and  _224
REMARK   80  A    between atoms: _224  and  _225
REMARK   81  A    between atoms: _228  and  _230
REMARK   82  A    between atoms: _230  and  _231
REMARK   83  A    between atoms: _230  and  _233
REMARK   84  A    between atoms: _236  and  _238
REMARK   85  A    between atoms: _238  and  _239
REMARK   86  A    between atoms: _238  and  _241
REMARK   87  A    between atoms: _241  and  _242
REMARK   88  A    between atoms: _247  and  _249
REMARK   89  A    between atoms: _249  and  _250
REMARK   90  A    between atoms: _249  and  _252
REMARK   91  A    between atoms: _252  and  _253
REMARK   92  A    between atoms: _259  and  _261
REMARK   93  A    between atoms: _261  and  _262
REMARK   94  A    between atoms: _261  and  _264
REMARK   95  A    between atoms: _267  and  _269
REMARK   96  A    between atoms: _269  and  _270
REMARK   97  A    between atoms: _269  and  _272
REMARK   98  A    between atoms: _272  and  _273
REMARK   99  A    between atoms: _276  and  _278
REMARK  100  A    between atoms: _278  and  _279
REMARK  101  A    between atoms: _282  and  _284
REMARK  102  A    between atoms: _284  and  _285
REMARK  103  A    between atoms: _284  and  _287
REMARK  104  A    between atoms: _290  and  _292
REMARK  105  A    between atoms: _292  and  _293
REMARK  106  A    between atoms: _292  and  _295
REMARK  107  A    between atoms: _295  and  _296
REMARK  108  A    between atoms: _299  and  _301
REMARK  109  A    between atoms: _301  and  _302
REMARK  110  A    between atoms: _301  and  _304
REMARK  111  A    between atoms: _304  and  _305
REMARK  112  A    between atoms: _307  and  _309
REMARK  113  A    between atoms: _309  and  _310
REMARK  114  A    between atoms: _309  and  _312
REMARK  115  A    between atoms: _312  and  _313
REMARK  116  A    between atoms: _316  and  _318
REMARK  117  A    between atoms: _318  and  _319
REMARK  118  A    between atoms: _318  and  _321
REMARK  119  A    between atoms: _321  and  _322
REMARK  120  A    between atoms: _325  and  _327
REMARK  121  A    between atoms: _327  and  _328
REMARK  122  A    between atoms: _327  and  _330
REMARK  123  A    between atoms: _330  and  _331
REMARK  124  A    between atoms: _335  and  _336
REMARK  125  A    between atoms: _342  and  _343
REMARK  126  A    between atoms: _348  and  _350
REMARK  127  A    between atoms: _350  and  _351
REMARK  128  A    between atoms: _350  and  _353
REMARK  129  A    between atoms: _353  and  _354
REMARK  130  A    between atoms: _357  and  _359
REMARK  131  A    between atoms: _359  and  _360
REMARK  132  A    between atoms: _359  and  _362
REMARK  133  A    between atoms: _362  and  _363
REMARK  134  A    between atoms: _366  and  _368
REMARK  135  A    between atoms: _368  and  _369
REMARK  136  A    between atoms: _368  and  _371
REMARK  137  A    between atoms: _373  and  _375
REMARK  138  A    between atoms: _375  and  _376
REMARK  139  A    between atoms: _375  and  _378
REMARK  140  A    between atoms: _381  and  _383
REMARK  141  A    between atoms: _383  and  _384
REMARK  142  A    between atoms: _383  and  _386
REMARK  143  A    between atoms: _386  and  _387
REMARK  144  A    between atoms: _397  and  _399
REMARK  145  A    between atoms: _399  and  _400
REMARK  146  A    between atoms: _399  and  _402
REMARK  147  A    between atoms: _402  and  _403
REMARK  148  A    between atoms: _408  and  _410
REMARK  149  A    between atoms: _410  and  _411
REMARK  150  A    between atoms: _410  and  _413
REMARK  151  A    between atoms: _413  and  _414
REMARK  152  A    between atoms: _414  and  _415
REMARK  153  A    between atoms: _415  and  _416
REMARK                            x       y       z     vdW  Elec       q    Type
REMARK                         _______ _______ _______ _____ _____    ______ ____
ROOT
ATOM      1  CA  SER A   1      -2.781  -2.236  24.281  0.00  0.00    +0.163 C 
ENDROOT
BRANCH   1   2
ATOM      2  N   SER A   1      -1.713  -1.347  24.752  0.00  0.00    -0.237 NA
ATOM      3  H   SER A   1      -1.198  -0.775  24.053  0.00  0.00    +0.142 HD
ENDBRANCH   1   2
BRANCH   1   4
ATOM      4  C   SER A   1      -2.260  -3.098  23.141  0.00  0.00    +0.227 C 
ATOM      5  O   SER A   1      -1.274  -2.726  22.503  0.00  0.00    -0.287 OA
ENDBRANCH   1   4
BRANCH   1   6
ATOM      6  CB  SER A   1      -3.934  -1.429  23.753  0.00  0.00    +0.162 C 
BRANCH   6   7
ATOM      7  OG  SER A   1      -4.543  -0.690  24.812  0.00  0.00    -0.380 OA
ATOM      8  H   SER A   1      -4.875  -1.317  25.502  0.00  0.00    +0.211 HD
ENDBRANCH   6   7
ENDBRANCH   1   6
TORSDOF 4
REMARK  Name = ../refined-set-2016/3p58/3p58_pocket.pdb
REMARK  153 active torsions:
REMARK  status: ('A' for Active; 'I' for Inactive)
REMARK    1  A    between atoms: _1  and  _3
REMARK    2  A    between atoms: _3  and  _4
REMARK    3  A    between atoms: _3  and  _6
REMARK    4  A    between atoms: _6  and  _7
REMARK    5  A    between atoms: _17  and  _19
REMARK    6  A    between atoms: _19  and  _20
REMARK    7  A    between atoms: _19  and  _22
REMARK    8  A    between atoms: _22  and  _23
REMARK    9  A    between atoms: _28  and  _29
REMARK   10  A    between atoms: _31  and  _33
REMARK   11  A    between atoms: _33  and  _34
REMARK   12  A    between atoms: _33  and  _36
REMARK   13  A    between atoms: _36  and  _37
REMARK   14  A    between atoms: _39  and  _41
REMARK   15  A    between atoms: _41  and  _42
REMARK   16  A    between atoms: _41  and  _44
REMARK   17  A    between atoms: _44  and  _45
REMARK   18  A    between atoms: _48  and  _50
REMARK   19  A    between atoms: _50  and  _51
REMARK   20  A    between atoms: _50  and  _53
REMARK   21  A    between atoms: _53  and  _54
REMARK   22  A    between atoms: _59  and  _61
REMARK   23  A    between atoms: _61  and  _62
REMARK   24  A    between atoms: _64  and  _66
REMARK   25  A    between atoms: _66  and  _67
REMARK   26  A    between atoms: _66  and  _69
REMARK   27  A    between atoms: _69  and  _70
REMARK   28  A    between atoms: _75  and  _77
REMARK   29  A    between atoms: _77  and  _78
REMARK   30  A    between atoms: _81  and  _83
REMARK   31  A    between atoms: _83  and  _84
REMARK   32  A    between atoms: _83  and  _86
REMARK   33  A    between atoms: _86  and  _87
REMARK   34  A    between atoms: _93  and  _95
REMARK   35  A    between atoms: _95  and  _96
REMARK   36  A    between atoms: _95  and  _98
REMARK   37  A    between atoms: _98  and  _99
REMARK   38  A    between atoms: _104  and  _106
REMARK   39  A    between atoms: _106  and  _107
REMARK   40  A    between atoms: _106  and  _109
REMARK   41  A    between atoms: _112  and  _114
REMARK   42  A    between atoms: _114  and  _115
REMARK   43  A    between atoms: _114  and  _117
REMARK   44  A    between atoms: _117  and  _118
REMARK   45  A    between atoms: _121  and  _123
REMARK   46  A    between atoms: _123  and  _124
REMARK   47  A    between atoms: _123  and  _126
REMARK   48  A    between atoms: _126  and  _127
REMARK   49  A    between atoms: _127  and  _128
REMARK   50  A    between atoms: _133  and  _135
REMARK   51  A    between atoms: _135  and  _136
REMARK   52  A    between atoms: _135  and  _138
REMARK   53  A    between atoms: _138  and  _139
REMARK   54  A    between atoms: _145  and  _147
REMARK   55  A    between atoms: _158  and  _161
REMARK   56  A    between atoms: _161  and  _162
REMARK   57  A    between atoms: _170  and  _171
REMARK   58  A    between atoms: _179  and  _181
REMARK   59  A    between atoms: _181  and  _182
REMARK   60  A    between atoms: _181  and  _184
REMARK   61  A    between atoms: _184  and  _185
REMARK   62  A    between atoms: _185  and  _186
REMARK   63  A    between atoms: _189  and  _191
REMARK   64  A    between atoms: _191  and  _192
REMARK   65  A    between atoms: _191  and  _194
REMARK   66  A    between atoms: _194  and  _195
REMARK   67  A    between atoms: _195  and  _196
REMARK   68  A    between atoms: _199  and  _201
REMARK   69  A    between atoms: _201  and  _202
REMARK   70  A    between atoms: _201  and  _204
REMARK   71  A    between atoms: _204  and  _205
REMARK   72  A    between atoms: _208  and  _210
REMARK   73  A    between atoms: _210  and  _211
REMARK   74  A    between atoms: _210  and  _213
REMARK   75  A    between atoms: _213  and  _214
REMARK   76  A    between atoms: _215  and  ZN_425
REMARK   77  A    between atoms: _219  and  _221
REMARK   78  A    between atoms: _221  and  _222
REMARK   79  A    between atoms: _221  and  _224
REMARK   80  A    between atoms: _224  and  _225
REMARK   81  A    between atoms: _228  and  _230
REMARK   82  A    between atoms: _230  and  _231
REMARK   83  A    between atoms: _230  and  _233
REMARK   84  A    between atoms: _236  and  _238
REMARK   85  A    between atoms: _238  and  _239
REMARK   86  A    between atoms: _238  and  _241
REMARK   87  A    between atoms: _241  and  _242
REMARK   88  A    between atoms: _247  and  _249
REMARK   89  A    between atoms: _249  and  _250
REMARK   90  A    between atoms: _249  and  _252
REMARK   91  A    between atoms: _252  and  _253
REMARK   92  A    between atoms: _259  and  _261
REMARK   93  A    between atoms: _261  and  _262
REMARK   94  A    between atoms: _261  and  _264
REMARK   95  A    between atoms: _267  and  _269
REMARK   96  A    between atoms: _269  and  _270
REMARK   97  A    between atoms: _269  and  _272
REMARK   98  A    between atoms: _272  and  _273
REMARK   99  A    between atoms: _276  and  _278
REMARK  100  A    between atoms: _278  and  _279
REMARK  101  A    between atoms: _282  and  _284
REMARK  102  A    between atoms: _284  and  _285
REMARK  103  A    between atoms: _284  and  _287
REMARK  104  A    between atoms: _290  and  _292
REMARK  105  A    between atoms: _292  and  _293
REMARK  106  A    between atoms: _292  and  _295
REMARK  107  A    between atoms: _295  and  _296
REMARK  108  A    between atoms: _299  and  _301
REMARK  109  A    between atoms: _301  and  _302
REMARK  110  A    between atoms: _301  and  _304
REMARK  111  A    between atoms: _304  and  _305
REMARK  112  A    between atoms: _307  and  _309
REMARK  113  A    between atoms: _309  and  _310
REMARK  114  A    between atoms: _309  and  _312
REMARK  115  A    between atoms: _312  and  _313
REMARK  116  A    between atoms: _316  and  _318
REMARK  117  A    between atoms: _318  and  _319
REMARK  118  A    between atoms: _318  and  _321
REMARK  119  A    between atoms: _321  and  _322
REMARK  120  A    between atoms: _325  and  _327
REMARK  121  A    between atoms: _327  and  _328
REMARK  122  A    between atoms: _327  and  _330
REMARK  123  A    between atoms: _330  and  _331
REMARK  124  A    between atoms: _335  and  _336
REMARK  125  A    between atoms: _342  and  _343
REMARK  126  A    between atoms: _348  and  _350
REMARK  127  A    between atoms: _350  and  _351
REMARK  128  A    between atoms: _350  and  _353
REMARK  129  A    between atoms: _353  and  _354
REMARK  130  A    between atoms: _357  and  _359
REMARK  131  A    between atoms: _359  and  _360
REMARK  132  A    between atoms: _359  and  _362
REMARK  133  A    between atoms: _362  and  _363
REMARK  134  A    between atoms: _366  and  _368
REMARK  135  A    between atoms: _368  and  _369
REMARK  136  A    between atoms: _368  and  _371
REMARK  137  A    between atoms: _373  and  _375
REMARK  138  A    between atoms: _375  and  _376
REMARK  139  A    between atoms: _375  and  _378
REMARK  140  A    between atoms: _381  and  _383
REMARK  141  A    between atoms: _383  and  _384
REMARK  142  A    between atoms: _383  and  _386
REMARK  143  A    between atoms: _386  and  _387
REMARK  144  A    between atoms: _397  and  _399
REMARK  145  A    between atoms: _399  and  _400
REMARK  146  A    between atoms: _399  and  _402
REMARK  147  A    between atoms: _402  and  _403
REMARK  148  A    between atoms: _408  and  _410
REMARK  149  A    between atoms: _410  and  _411
REMARK  150  A    between atoms: _410  and  _413
REMARK  151  A    between atoms: _413  and  _414
REMARK  152  A    between atoms: _414  and  _415
REMARK  153  A    between atoms: _415  and  _416
REMARK                            x       y       z     vdW  Elec       q    Type
REMARK                         _______ _______ _______ _____ _____    ______ ____
ROOT
ATOM      1  CA  LEU A   1      -7.522   2.410   1.706  0.00  0.00    +0.133 C 
ENDROOT
BRANCH   1   2
ATOM      2  N   LEU A   1      -8.932   2.246   1.995  0.00  0.00    -0.239 NA
ATOM      3  H   LEU A   1      -9.218   1.953   2.951  0.00  0.00    +0.142 HD
ENDBRANCH   1   2
BRANCH   1   4
ATOM      4  C   LEU A   1      -6.747   1.219   2.266  0.00  0.00    +0.224 C 
ATOM      5  O   LEU A   1      -6.917   0.855   3.431  0.00  0.00    -0.287 OA
ENDBRANCH   1   4
BRANCH   1   6
ATOM      6  CB  LEU A   1      -7.014   3.722   2.367  0.00  0.00    +0.025 C 
BRANCH   6   7
ATOM      7  CG  LEU A   1      -5.492   3.912   2.390  0.00  0.00    +0.002 C 
ATOM      8  CD2 LEU A   1      -5.079   5.036   3.328  0.00  0.00    +0.000 C 
ATOM      9  CD1 LEU A   1      -4.991   4.155   0.961  0.00  0.00    +0.000 C 
ENDBRANCH   6   7
ENDBRANCH   1   6
TORSDOF 4
REMARK  Name = ../refined-set-2016/3p58/3p58_pocket.pdb
REMARK  153 active torsions:
REMARK  status: ('A' for Active; 'I' for Inactive)
REMARK    1  A    between atoms: _1  and  _3
REMARK    2  A    between atoms: _3  and  _4
REMARK    3  A    between atoms: _3  and  _6
REMARK    4  A    between atoms: _6  and  _7
REMARK    5  A    between atoms: _17  and  _19
REMARK    6  A    between atoms: _19  and  _20
REMARK    7  A    between atoms: _19  and  _22
REMARK    8  A    between atoms: _22  and  _23
REMARK    9  A    between atoms: _28  and  _29
REMARK   10  A    between atoms: _31  and  _33
REMARK   11  A    between atoms: _33  and  _34
REMARK   12  A    between atoms: _33  and  _36
REMARK   13  A    between atoms: _36  and  _37
REMARK   14  A    between atoms: _39  and  _41
REMARK   15  A    between atoms: _41  and  _42
REMARK   16  A    between atoms: _41  and  _44
REMARK   17  A    between atoms: _44  and  _45
REMARK   18  A    between atoms: _48  and  _50
REMARK   19  A    between atoms: _50  and  _51
REMARK   20  A    between atoms: _50  and  _53
REMARK   21  A    between atoms: _53  and  _54
REMARK   22  A    between atoms: _59  and  _61
REMARK   23  A    between atoms: _61  and  _62
REMARK   24  A    between atoms: _64  and  _66
REMARK   25  A    between atoms: _66  and  _67
REMARK   26  A    between atoms: _66  and  _69
REMARK   27  A    between atoms: _69  and  _70
REMARK   28  A    between atoms: _75  and  _77
REMARK   29  A    between atoms: _77  and  _78
REMARK   30  A    between atoms: _81  and  _83
REMARK   31  A    between atoms: _83  and  _84
REMARK   32  A    between atoms: _83  and  _86
REMARK   33  A    between atoms: _86  and  _87
REMARK   34  A    between atoms: _93  and  _95
REMARK   35  A    between atoms: _95  and  _96
REMARK   36  A    between atoms: _95  and  _98
REMARK   37  A    between atoms: _98  and  _99
REMARK   38  A    between atoms: _104  and  _106
REMARK   39  A    between atoms: _106  and  _107
REMARK   40  A    between atoms: _106  and  _109
REMARK   41  A    between atoms: _112  and  _114
REMARK   42  A    between atoms: _114  and  _115
REMARK   43  A    between atoms: _114  and  _117
REMARK   44  A    between atoms: _117  and  _118
REMARK   45  A    between atoms: _121  and  _123
REMARK   46  A    between atoms: _123  and  _124
REMARK   47  A    between atoms: _123  and  _126
REMARK   48  A    between atoms: _126  and  _127
REMARK   49  A    between atoms: _127  and  _128
REMARK   50  A    between atoms: _133  and  _135
REMARK   51  A    between atoms: _135  and  _136
REMARK   52  A    between atoms: _135  and  _138
REMARK   53  A    between atoms: _138  and  _139
REMARK   54  A    between atoms: _145  and  _147
REMARK   55  A    between atoms: _158  and  _161
REMARK   56  A    between atoms: _161  and  _162
REMARK   57  A    between atoms: _170  and  _171
REMARK   58  A    between atoms: _179  and  _181
REMARK   59  A    between atoms: _181  and  _182
REMARK   60  A    between atoms: _181  and  _184
REMARK   61  A    between atoms: _184  and  _185
REMARK   62  A    between atoms: _185  and  _186
REMARK   63  A    between atoms: _189  and  _191
REMARK   64  A    between atoms: _191  and  _192
REMARK   65  A    between atoms: _191  and  _194
REMARK   66  A    between atoms: _194  and  _195
REMARK   67  A    between atoms: _195  and  _196
REMARK   68  A    between atoms: _199  and  _201
REMARK   69  A    between atoms: _201  and  _202
REMARK   70  A    between atoms: _201  and  _204
REMARK   71  A    between atoms: _204  and  _205
REMARK   72  A    between atoms: _208  and  _210
REMARK   73  A    between atoms: _210  and  _211
REMARK   74  A    between atoms: _210  and  _213
REMARK   75  A    between atoms: _213  and  _214
REMARK   76  A    between atoms: _215  and  ZN_425
REMARK   77  A    between atoms: _219  and  _221
REMARK   78  A    between atoms: _221  and  _222
REMARK   79  A    between atoms: _221  and  _224
REMARK   80  A    between atoms: _224  and  _225
REMARK   81  A    between atoms: _228  and  _230
REMARK   82  A    between atoms: _230  and  _231
REMARK   83  A    between atoms: _230  and  _233
REMARK   84  A    between atoms: _236  and  _238
REMARK   85  A    between atoms: _238  and  _239
REMARK   86  A    between atoms: _238  and  _241
REMARK   87  A    between atoms: _241  and  _242
REMARK   88  A    between atoms: _247  and  _249
REMARK   89  A    between atoms: _249  and  _250
REMARK   90  A    between atoms: _249  and  _252
REMARK   91  A    between atoms: _252  and  _253
REMARK   92  A    between atoms: _259  and  _261
REMARK   93  A    between atoms: _261  and  _262
REMARK   94  A    between atoms: _261  and  _264
REMARK   95  A    between atoms: _267  and  _269
REMARK   96  A    between atoms: _269  and  _270
REMARK   97  A    between atoms: _269  and  _272
REMARK   98  A    between atoms: _272  and  _273
REMARK   99  A    between atoms: _276  and  _278
REMARK  100  A    between atoms: _278  and  _279
REMARK  101  A    between atoms: _282  and  _284
REMARK  102  A    between atoms: _284  and  _285
REMARK  103  A    between atoms: _284  and  _287
REMARK  104  A    between atoms: _290  and  _292
REMARK  105  A    between atoms: _292  and  _293
REMARK  106  A    between atoms: _292  and  _295
REMARK  107  A    between atoms: _295  and  _296
REMARK  108  A    between atoms: _299  and  _301
REMARK  109  A    between atoms: _301  and  _302
REMARK  110  A    between atoms: _301  and  _304
REMARK  111  A    between atoms: _304  and  _305
REMARK  112  A    between atoms: _307  and  _309
REMARK  113  A    between atoms: _309  and  _310
REMARK  114  A    between atoms: _309  and  _312
REMARK  115  A    between atoms: _312  and  _313
REMARK  116  A    between atoms: _316  and  _318
REMARK  117  A    between atoms: _318  and  _319
REMARK  118  A    between atoms: _318  and  _321
REMARK  119  A    between atoms: _321  and  _322
REMARK  120  A    between atoms: _325  and  _327
REMARK  121  A    between atoms: _327  and  _328
REMARK  122  A    between atoms: _327  and  _330
REMARK  123  A    between atoms: _330  and  _331
REMARK  124  A    between atoms: _335  and  _336
REMARK  125  A    between atoms: _342  and  _343
REMARK  126  A    between atoms: _348  and  _350
REMARK  127  A    between atoms: _350  and  _351
REMARK  128  A    between atoms: _350  and  _353
REMARK  129  A    between atoms: _353  and  _354
REMARK  130  A    between atoms: _357  and  _359
REMARK  131  A    between atoms: _359  and  _360
REMARK  132  A    between atoms: _359  and  _362
REMARK  133  A    between atoms: _362  and  _363
REMARK  134  A    between atoms: _366  and  _368
REMARK  135  A    between atoms: _368  and  _369
REMARK  136  A    between atoms: _368  and  _371
REMARK  137  A    between atoms: _373  and  _375
REMARK  138  A    between atoms: _375  and  _376
REMARK  139  A    between atoms: _375  and  _378
REMARK  140  A    between atoms: _381  and  _383
REMARK  141  A    between atoms: _383  and  _384
REMARK  142  A    between atoms: _383  and  _386
REMARK  143  A    between atoms: _386  and  _387
REMARK  144  A    between atoms: _397  and  _399
REMARK  145  A    between atoms: _399  and  _400
REMARK  146  A    between atoms: _399  and  _402
REMARK  147  A    between atoms: _402  and  _403
REMARK  148  A    between atoms: _408  and  _410
REMARK  149  A    between atoms: _410  and  _411
REMARK  150  A    between atoms: _410  and  _413
REMARK  151  A    between atoms: _413  and  _414
REMARK  152  A    between atoms: _414  and  _415
REMARK  153  A    between atoms: _415  and  _416
REMARK                            x       y       z     vdW  Elec       q    Type
REMARK                         _______ _______ _______ _____ _____    ______ ____
ROOT
ATOM      1  C   ALA A   4      -5.294  -2.294   6.177  0.00  0.00    +0.241 C 
ATOM      2  N   PHE A   5      -6.607  -2.456   6.099  0.00  0.00    -0.297 N 
ATOM      3  H   PHE A   5      -7.067  -3.212   6.645  0.00  0.00    +0.150 HD
ATOM      4  O   ALA A   4      -4.644  -1.651   5.315  0.00  0.00    -0.273 OA
ENDROOT
BRANCH   1   5
ATOM      5  CA  ALA A   4      -4.586  -2.960   7.336  0.00  0.00    +0.149 C 
ATOM      6  CB  ALA A   4      -5.145  -2.475   8.679  0.00  0.00    +0.031 C 
BRANCH   5   9
ATOM      7  C   HIS A   3      -2.211  -3.228   7.860  0.00  0.00    +0.241 C 
ATOM      8  O   HIS A   3      -2.422  -4.130   8.674  0.00  0.00    -0.273 OA
ATOM      9  N   ALA A   4      -3.182  -2.596   7.232  0.00  0.00    -0.297 N 
ATOM     10  H   ALA A   4      -2.929  -1.789   6.626  0.00  0.00    +0.150 HD
BRANCH   7  11
ATOM     11  CA  HIS A   3      -0.786  -2.835   7.528  0.00  0.00    +0.155 C 
BRANCH  11  13
ATOM     12  C   GLY A   2       0.256  -2.236   5.415  0.00  0.00    +0.243 C 
ATOM     13  N   HIS A   3      -0.644  -1.951   6.356  0.00  0.00    -0.297 N 
ATOM     14  H   HIS A   3      -1.245  -1.107   6.264  0.00  0.00    +0.150 HD
ATOM     15  O   GLY A   2       1.089  -3.131   5.534  0.00  0.00    -0.273 OA
BRANCH  12  16
ATOM     16  CA  GLY A   2       0.247  -1.396   4.148  0.00  0.00    +0.176 C 
BRANCH  16  19
ATOM     17  C   ASN A   1      -0.955   0.686   4.358  0.00  0.00    +0.239 C 
ATOM     18  O   ASN A   1       0.027   1.235   4.892  0.00  0.00    -0.274 OA
ATOM     19  N   GLY A   2      -0.938  -0.598   3.999  0.00  0.00    -0.296 N 
ATOM     20  H   GLY A   2      -1.798  -1.029   3.604  0.00  0.00    +0.150 HD
BRANCH  17  21
ATOM     21  CA  ASN A   1      -2.230   1.446   4.085  0.00  0.00    +0.154 C 
BRANCH  21  22
ATOM     22  N   ASN A   1      -3.337   0.594   3.625  0.00  0.00    -0.238 NA
ATOM     23  H   ASN A   1      -3.883   0.050   4.323  0.00  0.00    +0.142 HD
ENDBRANCH  21  22
BRANCH  21  24
ATOM     24  CB  ASN A   1      -2.622   2.268   5.322  0.00  0.00    +0.111 C 
BRANCH  24  25
ATOM     25  CG  ASN A   1      -2.839   1.418   6.546  0.00  0.00    +0.221 C 
ATOM     26  ND2 ASN A   1      -3.270   2.033   7.618  0.00  0.00    -0.329 N 
ATOM     27 HD21 ASN A   1      -3.430   1.498   8.496  0.00  0.00    +0.145 HD
ATOM     28 HD22 ASN A   1      -3.453   3.056   7.592  0.00  0.00    +0.145 HD
ATOM     29  OD1 ASN A   1      -2.614   0.230   6.533  0.00  0.00    -0.275 OA
ENDBRANCH  24  25
ENDBRANCH  21  24
ENDBRANCH  17  21
ENDBRANCH  16  19
ENDBRANCH  12  16
ENDBRANCH  11  13
BRANCH  11  30
ATOM     30  CB  HIS A   3      -0.078  -2.287   8.765  0.00  0.00    +0.076 C 
BRANCH  30  31
ATOM     31  CG  HIS A   3      -0.549  -0.960   9.225  0.00  0.00    +0.082 A 
ATOM     32  ND1 HIS A   3      -1.446  -0.810  10.265  0.00  0.00    -0.227 NA
ATOM     33  CE1 HIS A   3      -1.634   0.478  10.490  0.00  0.00    +0.199 A 
ATOM     34  NE2 HIS A   3      -0.878   1.167   9.663  0.00  0.00    -0.221 NA
ATOM     35  CD2 HIS A   3      -0.159   0.294   8.879  0.00  0.00    +0.115 A 
ENDBRANCH  30  31
ENDBRANCH  11  30
ENDBRANCH   7  11
ENDBRANCH   5   9
ENDBRANCH   1   5
BRANCH   2  36
ATOM     36  CA  PHE A   5      -7.421  -1.574   5.245  0.00  0.00    +0.153 C 
BRANCH  36  37
ATOM     37  C   PHE A   5      -8.335  -0.709   6.123  0.00  0.00    +0.241 C 
ATOM     38  O   PHE A   5      -8.904  -1.177   7.109  0.00  0.00    -0.273 OA
ATOM     39  N   ASN A   6      -8.445   0.574   5.778  0.00  0.00    -0.297 N 
ATOM     40  H   ASN A   6      -7.952   0.908   4.925  0.00  0.00    +0.150 HD
BRANCH  39  41
ATOM     41  CA  ASN A   6      -9.226   1.518   6.548  0.00  0.00    +0.158 C 
BRANCH  41  42
ATOM     42  C   ASN A   6     -10.429   1.938   5.706  0.00  0.00    +0.241 C 
ATOM     43  N   VAL A   7     -11.611   1.841   6.279  0.00  0.00    -0.298 N 
ATOM     44  H   VAL A   7     -11.697   1.309   7.169  0.00  0.00    +0.150 HD
ATOM     45  O   ASN A   6     -10.264   2.393   4.564  0.00  0.00    -0.273 OA
BRANCH  43  46
ATOM     46  CA  VAL A   7     -12.797   2.453   5.708  0.00  0.00    +0.137 C 
BRANCH  46  47
ATOM     47  CB  VAL A   7     -14.062   1.607   5.912  0.00  0.00    +0.026 C 
ATOM     48  CG2 VAL A   7     -15.297   2.377   5.391  0.00  0.00    +0.002 C 
ATOM     49  CG1 VAL A   7     -13.914   0.277   5.204  0.00  0.00    +0.002 C 
ENDBRANCH  46  47
BRANCH  46  50
ATOM     50  C   VAL A   7     -12.926   3.815   6.412  0.00  0.00    +0.227 C 
ATOM     51  O   VAL A   7     -13.104   3.880   7.658  0.00  0.00    -0.286 OA
ENDBRANCH  46  50
ENDBRANCH  43  46
ENDBRANCH  41  42
BRANCH  41  52
ATOM     52  CB  ASN A   6      -8.422   2.772   6.838  0.00  0.00    +0.114 C 
BRANCH  52  53
ATOM     53  CG  ASN A   6      -7.332   2.573   7.848  0.00  0.00    +0.222 C 
ATOM     54  OD1 ASN A   6      -7.135   1.495   8.383  0.00  0.00    -0.275 OA
ATOM     55  ND2 ASN A   6      -6.602   3.661   8.130  0.00  0.00    -0.329 N 
ATOM     56 HD21 ASN A   6      -5.834   3.605   8.829  0.00  0.00    +0.145 HD
ATOM     57 HD22 ASN A   6      -6.804   4.561   7.650  0.00  0.00    +0.145 HD
ENDBRANCH  52  53
ENDBRANCH  41  52
ENDBRANCH  39  41
ENDBRANCH  36  37
BRANCH  36  58
ATOM     58  CB  PHE A   5      -8.208  -2.343   4.161  0.00  0.00    +0.055 C 
BRANCH  58  59
ATOM     59  CG  PHE A   5      -9.224  -3.282   4.709  0.00  0.00    -0.020 A 
ATOM     60  CD2 PHE A   5     -10.489  -2.834   5.044  0.00  0.00    -0.004 A 
ATOM     61  CE2 PHE A   5     -11.412  -3.673   5.559  0.00  0.00    -0.000 A 
ATOM     62  CZ  PHE A   5     -11.133  -5.011   5.753  0.00  0.00    -0.000 A 
ATOM     63  CE1 PHE A   5      -9.864  -5.501   5.433  0.00  0.00    -0.000 A 
ATOM     64  CD1 PHE A   5      -8.932  -4.641   4.887  0.00  0.00    -0.004 A 
ENDBRANCH  58  59
ENDBRANCH  36  58
ENDBRANCH   2  36
TORSDOF 23
REMARK  Name = ../refined-set-2016/3p58/3p58_pocket.pdb
REMARK  153 active torsions:
REMARK  status: ('A' for Active; 'I' for Inactive)
REMARK    1  A    between atoms: _1  and  _3
REMARK    2  A    between atoms: _3  and  _4
REMARK    3  A    between atoms: _3  and  _6
REMARK    4  A    between atoms: _6  and  _7
REMARK    5  A    between atoms: _17  and  _19
REMARK    6  A    between atoms: _19  and  _20
REMARK    7  A    between atoms: _19  and  _22
REMARK    8  A    between atoms: _22  and  _23
REMARK    9  A    between atoms: _28  and  _29
REMARK   10  A    between atoms: _31  and  _33
REMARK   11  A    between atoms: _33  and  _34
REMARK   12  A    between atoms: _33  and  _36
REMARK   13  A    between atoms: _36  and  _37
REMARK   14  A    between atoms: _39  and  _41
REMARK   15  A    between atoms: _41  and  _42
REMARK   16  A    between atoms: _41  and  _44
REMARK   17  A    between atoms: _44  and  _45
REMARK   18  A    between atoms: _48  and  _50
REMARK   19  A    between atoms: _50  and  _51
REMARK   20  A    between atoms: _50  and  _53
REMARK   21  A    between atoms: _53  and  _54
REMARK   22  A    between atoms: _59  and  _61
REMARK   23  A    between atoms: _61  and  _62
REMARK   24  A    between atoms: _64  and  _66
REMARK   25  A    between atoms: _66  and  _67
REMARK   26  A    between atoms: _66  and  _69
REMARK   27  A    between atoms: _69  and  _70
REMARK   28  A    between atoms: _75  and  _77
REMARK   29  A    between atoms: _77  and  _78
REMARK   30  A    between atoms: _81  and  _83
REMARK   31  A    between atoms: _83  and  _84
REMARK   32  A    between atoms: _83  and  _86
REMARK   33  A    between atoms: _86  and  _87
REMARK   34  A    between atoms: _93  and  _95
REMARK   35  A    between atoms: _95  and  _96
REMARK   36  A    between atoms: _95  and  _98
REMARK   37  A    between atoms: _98  and  _99
REMARK   38  A    between atoms: _104  and  _106
REMARK   39  A    between atoms: _106  and  _107
REMARK   40  A    between atoms: _106  and  _109
REMARK   41  A    between atoms: _112  and  _114
REMARK   42  A    between atoms: _114  and  _115
REMARK   43  A    between atoms: _114  and  _117
REMARK   44  A    between atoms: _117  and  _118
REMARK   45  A    between atoms: _121  and  _123
REMARK   46  A    between atoms: _123  and  _124
REMARK   47  A    between atoms: _123  and  _126
REMARK   48  A    between atoms: _126  and  _127
REMARK   49  A    between atoms: _127  and  _128
REMARK   50  A    between atoms: _133  and  _135
REMARK   51  A    between atoms: _135  and  _136
REMARK   52  A    between atoms: _135  and  _138
REMARK   53  A    between atoms: _138  and  _139
REMARK   54  A    between atoms: _145  and  _147
REMARK   55  A    between atoms: _158  and  _161
REMARK   56  A    between atoms: _161  and  _162
REMARK   57  A    between atoms: _170  and  _171
REMARK   58  A    between atoms: _179  and  _181
REMARK   59  A    between atoms: _181  and  _182
REMARK   60  A    between atoms: _181  and  _184
REMARK   61  A    between atoms: _184  and  _185
REMARK   62  A    between atoms: _185  and  _186
REMARK   63  A    between atoms: _189  and  _191
REMARK   64  A    between atoms: _191  and  _192
REMARK   65  A    between atoms: _191  and  _194
REMARK   66  A    between atoms: _194  and  _195
REMARK   67  A    between atoms: _195  and  _196
REMARK   68  A    between atoms: _199  and  _201
REMARK   69  A    between atoms: _201  and  _202
REMARK   70  A    between atoms: _201  and  _204
REMARK   71  A    between atoms: _204  and  _205
REMARK   72  A    between atoms: _208  and  _210
REMARK   73  A    between atoms: _210  and  _211
REMARK   74  A    between atoms: _210  and  _213
REMARK   75  A    between atoms: _213  and  _214
REMARK   76  A    between atoms: _215  and  ZN_425
REMARK   77  A    between atoms: _219  and  _221
REMARK   78  A    between atoms: _221  and  _222
REMARK   79  A    between atoms: _221  and  _224
REMARK   80  A    between atoms: _224  and  _225
REMARK   81  A    between atoms: _228  and  _230
REMARK   82  A    between atoms: _230  and  _231
REMARK   83  A    between atoms: _230  and  _233
REMARK   84  A    between atoms: _236  and  _238
REMARK   85  A    between atoms: _238  and  _239
REMARK   86  A    between atoms: _238  and  _241
REMARK   87  A    between atoms: _241  and  _242
REMARK   88  A    between atoms: _247  and  _249
REMARK   89  A    between atoms: _249  and  _250
REMARK   90  A    between atoms: _249  and  _252
REMARK   91  A    between atoms: _252  and  _253
REMARK   92  A    between atoms: _259  and  _261
REMARK   93  A    between atoms: _261  and  _262
REMARK   94  A    between atoms: _261  and  _264
REMARK   95  A    between atoms: _267  and  _269
REMARK   96  A    between atoms: _269  and  _270
REMARK   97  A    between atoms: _269  and  _272
REMARK   98  A    between atoms: _272  and  _273
REMARK   99  A    between atoms: _276  and  _278
REMARK  100  A    between atoms: _278  and  _279
REMARK  101  A    between atoms: _282  and  _284
REMARK  102  A    between atoms: _284  and  _285
REMARK  103  A    between atoms: _284  and  _287
REMARK  104  A    between atoms: _290  and  _292
REMARK  105  A    between atoms: _292  and  _293
REMARK  106  A    between atoms: _292  and  _295
REMARK  107  A    between atoms: _295  and  _296
REMARK  108  A    between atoms: _299  and  _301
REMARK  109  A    between atoms: _301  and  _302
REMARK  110  A    between atoms: _301  and  _304
REMARK  111  A    between atoms: _304  and  _305
REMARK  112  A    between atoms: _307  and  _309
REMARK  113  A    between atoms: _309  and  _310
REMARK  114  A    between atoms: _309  and  _312
REMARK  115  A    between atoms: _312  and  _313
REMARK  116  A    between atoms: _316  and  _318
REMARK  117  A    between atoms: _318  and  _319
REMARK  118  A    between atoms: _318  and  _321
REMARK  119  A    between atoms: _321  and  _322
REMARK  120  A    between atoms: _325  and  _327
REMARK  121  A    between atoms: _327  and  _328
REMARK  122  A    between atoms: _327  and  _330
REMARK  123  A    between atoms: _330  and  _331
REMARK  124  A    between atoms: _335  and  _336
REMARK  125  A    between atoms: _342  and  _343
REMARK  126  A    between atoms: _348  and  _350
REMARK  127  A    between atoms: _350  and  _351
REMARK  128  A    between atoms: _350  and  _353
REMARK  129  A    between atoms: _353  and  _354
REMARK  130  A    between atoms: _357  and  _359
REMARK  131  A    between atoms: _359  and  _360
REMARK  132  A    between atoms: _359  and  _362
REMARK  133  A    between atoms: _362  and  _363
REMARK  134  A    between atoms: _366  and  _368
REMARK  135  A    between atoms: _368  and  _369
REMARK  136  A    between atoms: _368  and  _371
REMARK  137  A    between atoms: _373  and  _375
REMARK  138  A    between atoms: _375  and  _376
REMARK  139  A    between atoms: _375  and  _378
REMARK  140  A    between atoms: _381  and  _383
REMARK  141  A    between atoms: _383  and  _384
REMARK  142  A    between atoms: _383  and  _386
REMARK  143  A    between atoms: _386  and  _387
REMARK  144  A    between atoms: _397  and  _399
REMARK  145  A    between atoms: _399  and  _400
REMARK  146  A    between atoms: _399  and  _402
REMARK  147  A    between atoms: _402  and  _403
REMARK  148  A    between atoms: _408  and  _410
REMARK  149  A    between atoms: _410  and  _411
REMARK  150  A    between atoms: _410  and  _413
REMARK  151  A    between atoms: _413  and  _414
REMARK  152  A    between atoms: _414  and  _415
REMARK  153  A    between atoms: _415  and  _416
REMARK                            x       y       z     vdW  Elec       q    Type
REMARK                         _______ _______ _______ _____ _____    ______ ____
ROOT
ATOM      1  C   UNK A   4     -10.203  -1.308  10.274  0.00  0.00    +0.000 C 
ATOM      2  C   UNK A   4     -10.304  -2.568  11.097  0.00  0.00    +0.000 C 
ATOM      3  O   UNK A   4     -10.958  -2.595  12.132  0.00  0.00    +0.000 OA
ATOM      4  N   VAL A   5      -9.620  -3.609  10.626  0.00  0.00    +0.000 N 
ATOM      5  CA  VAL A   5      -9.578  -4.912  11.303  0.00  0.00    +0.000 C 
ATOM      6  C   VAL A   5      -8.135  -5.358  11.499  0.00  0.00    +0.000 C 
ATOM      7  N   UNK A   6      -7.977  -6.292  12.419  0.00  0.00    +0.000 N 
ATOM      8  H   UNK A   6      -8.777  -6.492  13.053  0.00  0.00    +0.000 HD
ATOM      9  C   UNK A   6      -6.765  -7.052  12.599  0.00  0.00    +0.000 C 
ATOM     10  C   UNK A   6      -6.150  -6.795  13.981  0.00  0.00    +0.000 C 
ATOM     11  C   UNK A   6      -5.849  -5.362  14.243  0.00  0.00    +0.000 A 
ATOM     12  C   UNK A   6      -6.644  -4.348  14.661  0.00  0.00    +0.000 A 
ATOM     13  N   UNK A   6      -5.865  -3.210  14.713  0.00  0.00    +0.000 N 
ATOM     14 ZN   UNK A   6      -6.594  -1.405  15.344  0.00  0.00    +0.000 Zn
ATOM     15  N   UNK A   4      -7.400  -0.653  13.661  0.00  0.00    +0.000 N 
ATOM     16  C   UNK A   4      -7.917   0.562  13.506  0.00  0.00    +0.000 A 
ATOM     17  N   UNK A   4      -8.427   0.641  12.285  0.00  0.00    +0.000 NA
ATOM     18  C   UNK A   4      -8.232  -0.569  11.646  0.00  0.00    +0.000 A 
ATOM     19  C   UNK A   4      -7.614  -1.379  12.525  0.00  0.00    +0.000 A 
ATOM     20  C   UNK A   6      -4.637  -3.520  14.321  0.00  0.00    +0.000 A 
ATOM     21  N   UNK A   6      -4.607  -4.811  14.016  0.00  0.00    +0.000 NA
ATOM     22  O   VAL A   5      -7.210  -4.902  10.821  0.00  0.00    +0.000 OA
ATOM     23  H   VAL A   5      -9.091  -3.494   9.738  0.00  0.00    +0.000 HD
ATOM     24  C   UNK A   4      -8.749  -0.827  10.272  0.00  0.00    +0.000 C 
ENDROOT
BRANCH  14  25
ATOM     25  N   UNK A   6      -8.109  -2.103  16.574  0.00  0.00    +0.000 N 
ATOM     26  C   UNK A   6      -7.779  -3.043  17.448  0.00  0.00    +0.000 A 
ATOM     27  N   UNK A   6      -8.884  -3.496  18.005  0.00  0.00    +0.000 NA
ATOM     28  C   UNK A   6      -9.965  -2.858  17.450  0.00  0.00    +0.000 A 
ATOM     29  C   UNK A   6      -9.482  -1.968  16.553  0.00  0.00    +0.000 A 
BRANCH  29  30
ATOM     30  C   UNK A   6     -10.200  -1.001  15.663  0.00  0.00    +0.000 C 
BRANCH  30  31
ATOM     31  C   UNK A   6     -11.697  -1.319  15.553  0.00  0.00    +0.000 C 
BRANCH  31  32
ATOM     32  C   UNK A   6     -12.389  -0.178  14.858  0.00  0.00    +0.000 C 
ATOM     33  N   UNK A   4     -13.401   0.374  15.532  0.00  0.00    +0.000 N 
ATOM     34  H   UNK A   4     -13.716  -0.082  16.412  0.00  0.00    +0.000 HD
ATOM     35  O   UNK A   6     -11.981   0.219  13.748  0.00  0.00    +0.000 OA
BRANCH  33  36
ATOM     36  C   UNK A   4     -14.090   1.593  15.092  0.00  0.00    +0.000 C 
BRANCH  36  37
ATOM     37  C   UNK A   4     -13.492   2.744  15.874  0.00  0.00    +0.000 C 
ATOM     38  O   UNK A   4     -13.586   2.797  17.098  0.00  0.00    +0.000 OA
ATOM     39  N   VAL A   5     -12.782   3.603  15.151  0.00  0.00    +0.000 N 
ATOM     40  H   VAL A   5     -12.836   3.548  14.114  0.00  0.00    +0.000 HD
BRANCH  39  41
ATOM     41  CA  VAL A   5     -11.928   4.621  15.757  0.00  0.00    +0.000 C 
BRANCH  41  42
ATOM     42  C   VAL A   5     -12.648   5.952  15.799  0.00  0.00    +0.000 C 
ATOM     43  N   UNK A   6     -12.734   6.553  16.990  0.00  0.00    +0.000 N 
ATOM     44  H   UNK A   6     -12.286   6.103  17.814  0.00  0.00    +0.000 HD
ATOM     45  O   VAL A   5     -13.120   6.449  14.756  0.00  0.00    +0.000 OA
BRANCH  43  46
ATOM     46  C   UNK A   6     -13.445   7.836  17.174  0.00  0.00    +0.000 C 
BRANCH  46  47
ATOM     47  C   UNK A   6     -12.528   8.801  17.923  0.00  0.00    +0.000 C 
ATOM     48  O   UNK A   6     -11.793   8.406  18.788  0.00  0.00    +0.000 OA
ENDBRANCH  46  47
BRANCH  46  49
ATOM     49  C   UNK A   6     -14.697   7.668  18.022  0.00  0.00    +0.000 C 
BRANCH  49  50
ATOM     50  C   UNK A   6     -15.610   6.531  17.611  0.00  0.00    +0.000 A 
ATOM     51  N   UNK A   6     -15.287   5.207  17.849  0.00  0.00    +0.000 NA
ATOM     52  C   UNK A   6     -16.266   4.431  17.427  0.00  0.00    +0.000 A 
ATOM     53  N   UNK A   6     -17.204   5.189  16.893  0.00  0.00    +0.000 NA
ATOM     54  C   UNK A   6     -16.817   6.505  16.991  0.00  0.00    +0.000 A 
ENDBRANCH  49  50
ENDBRANCH  46  49
ENDBRANCH  43  46
ENDBRANCH  41  42
BRANCH  41  55
ATOM     55  CB  VAL A   5     -10.622   4.772  14.969  0.00  0.00    +0.000 C 
ATOM     56  CG2 VAL A   5      -9.719   5.769  15.658  0.00  0.00    +0.000 C 
ATOM     57  CG1 VAL A   5      -9.935   3.414  14.789  0.00  0.00    +0.000 C 
ENDBRANCH  41  55
ENDBRANCH  39  41
ENDBRANCH  36  37
BRANCH  36  58
ATOM     58  C   UNK A   4     -15.592   1.463  15.303  0.00  0.00    +0.000 C 
BRANCH  58  59
ATOM     59  C   UNK A   4     -16.295   0.409  14.445  0.00  0.00    +0.000 C 
ATOM     60  C   UNK A   4     -17.216  -0.450  15.297  0.00  0.00    +0.000 C 
ATOM     61  C   UNK A   4     -17.080   1.076  13.307  0.00  0.00    +0.000 C 
ENDBRANCH  58  59
ENDBRANCH  36  58
ENDBRANCH  33  36
ENDBRANCH  31  32
BRANCH  31  62
ATOM     62  N   UNK A   6     -11.903  -2.545  14.801  0.00  0.00    +0.000 N 
ATOM     63  C   LEU A   2     -12.534  -3.612  15.292  0.00  0.00    +0.000 C 
ATOM     64  O   LEU A   2     -12.925  -3.689  16.448  0.00  0.00    +0.000 OA
ATOM     65  H   UNK A   6     -11.539  -2.593  13.828  0.00  0.00    +0.000 HD
BRANCH  63  66
ATOM     66  CA  LEU A   2     -12.767  -4.757  14.308  0.00  0.00    +0.000 C 
BRANCH  66  67
ATOM     67  N   LEU A   2     -12.399  -6.016  14.935  0.00  0.00    +0.000 N 
ATOM     68  H   LEU A   2     -13.122  -6.511  15.495  0.00  0.00    +0.000 HD
ATOM     69  C   GLU A   1     -11.199  -6.573  14.837  0.00  0.00    +0.000 C 
ATOM     70  O   GLU A   1     -10.279  -6.121  14.132  0.00  0.00    +0.000 OA
BRANCH  69  71
ATOM     71  CA  GLU A   1     -11.019  -7.843  15.644  0.00  0.00    +0.000 C 
BRANCH  71  72
ATOM     72  N   GLU A   1     -10.483  -8.883  14.776  0.00  0.00    +0.000 NA
ATOM     73  H   GLU A   1      -9.810  -8.619  14.028  0.00  0.00    +0.000 HD
ENDBRANCH  71  72
BRANCH  71  74
ATOM     74  CB  GLU A   1     -10.075  -7.614  16.822  0.00  0.00    +0.000 C 
BRANCH  74  75
ATOM     75  CG  GLU A   1     -10.555  -6.630  17.897  0.00  0.00    +0.000 C 
BRANCH  75  76
ATOM     76  CD  GLU A   1      -9.612  -6.583  19.112  0.00  0.00    +0.000 C 
ATOM     77  OE2 GLU A   1      -9.530  -5.482  19.732  0.00  0.00    +0.000 OA
ATOM     78  OE1 GLU A   1      -8.990  -7.623  19.431  0.00  0.00    +0.000 OA
ENDBRANCH  75  76
ENDBRANCH  74  75
ENDBRANCH  71  74
ENDBRANCH  69  71
ENDBRANCH  66  67
BRANCH  66  79
ATOM     79  CB  LEU A   2     -14.257  -4.846  13.951  0.00  0.00    +0.000 C 
BRANCH  79  80
ATOM     80  CG  LEU A   2     -14.993  -3.543  13.603  0.00  0.00    +0.000 C 
ATOM     81  CD2 LEU A   2     -16.476  -3.866  13.355  0.00  0.00    +0.000 C 
ATOM     82  CD1 LEU A   2     -14.387  -2.893  12.408  0.00  0.00    +0.000 C 
ENDBRANCH  79  80
ENDBRANCH  66  79
ENDBRANCH  63  66
ENDBRANCH  31  62
ENDBRANCH  30  31
ENDBRANCH  29  30
ENDBRANCH  14  25
BRANCH   1  84
ATOM     83  C   UNK A   3     -11.661   0.641  10.168  0.00  0.00    +0.000 C 
ATOM     84  N   UNK A   4     -11.101  -0.346  10.859  0.00  0.00    +0.000 N 
ATOM     85  H   UNK A   4     -11.322  -0.428  11.872  0.00  0.00    +0.000 HD
ATOM     86  O   UNK A   3     -11.421   0.858   8.978  0.00  0.00    +0.000 OA
BRANCH  83  87
ATOM     87  C   UNK A   3     -12.624   1.501  10.985  0.00  0.00    +0.000 C 
BRANCH  87  90
ATOM     88  C   LEU A   2     -12.614   3.921  11.084  0.00  0.00    +0.000 C 
ATOM     89  O   LEU A   2     -12.646   3.959  12.309  0.00  0.00    +0.000 OA
ATOM     90  N   UNK A   3     -12.777   2.806  10.374  0.00  0.00    +0.000 N 
ATOM     91  H   UNK A   3     -13.018   2.873   9.365  0.00  0.00    +0.000 HD
BRANCH  88  92
ATOM     92  CA  LEU A   2     -12.370   5.181  10.301  0.00  0.00    +0.000 C 
BRANCH  92  94
ATOM     93  C   GLU A   1     -12.757   7.528  10.638  0.00  0.00    +0.000 C 
ATOM     94  N   LEU A   2     -12.631   6.310  11.166  0.00  0.00    +0.000 N 
ATOM     95  H   LEU A   2     -12.720   6.173  12.193  0.00  0.00    +0.000 HD
ATOM     96  O   GLU A   1     -12.724   7.705   9.419  0.00  0.00    +0.000 OA
BRANCH  93  97
ATOM     97  CA  GLU A   1     -13.049   8.693  11.590  0.00  0.00    +0.000 C 
BRANCH  97  98
ATOM     98  CB  GLU A   1     -11.749   9.350  12.098  0.00  0.00    +0.000 C 
ATOM     99  CG2 GLU A   1     -11.038   8.472  13.096  0.00  0.00    +0.000 C 
BRANCH  98 100
ATOM    100  CG1 GLU A   1     -10.826   9.689  10.927  0.00  0.00    +0.000 C 
ATOM    101  CD1 GLU A   1      -9.651  10.570  11.292  0.00  0.00    +0.000 C 
ENDBRANCH  98 100
ENDBRANCH  97  98
BRANCH  97 102
ATOM    102  N   GLU A   1     -13.941   8.330  12.692  0.00  0.00    +0.000 NA
ATOM    103  H   GLU A   1     -13.587   7.710  13.448  0.00  0.00    +0.000 HD
ENDBRANCH  97 102
ENDBRANCH  93  97
ENDBRANCH  92  94
BRANCH  92 104
ATOM    104  CB  LEU A   2     -10.927   5.203   9.747  0.00  0.00    +0.000 C 
BRANCH 104 105
ATOM    105  CG  LEU A   2      -9.827   5.245  10.806  0.00  0.00    +0.000 C 
BRANCH 105 106
ATOM    106  CD  LEU A   2      -9.106   3.937  11.030  0.00  0.00    +0.000 C 
ATOM    107  OE1 LEU A   2      -9.693   2.875  11.149  0.00  0.00    +0.000 OA
ATOM    108  NE2 LEU A   2      -7.783   4.021  11.095  0.00  0.00    +0.000 N 
ATOM    109 HE21 LEU A   2      -7.215   3.164  11.252  0.00  0.00    +0.000 HD
ATOM    110 HE22 LEU A   2      -7.315   4.944  10.989  0.00  0.00    +0.000 HD
ENDBRANCH 105 106
ENDBRANCH 104 105
ENDBRANCH  92 104
ENDBRANCH  88  92
ENDBRANCH  87  90
BRANCH  87 111
ATOM    111  C   UNK A   3     -13.966   0.793  11.251  0.00  0.00    +0.000 C 
BRANCH 111 112
ATOM    112  C   UNK A   3     -14.705   0.327  10.009  0.00  0.00    +0.000 A 
ATOM    113  C   UNK A   3     -15.831   0.984   9.563  0.00  0.00    +0.000 A 
ATOM    114  C   UNK A   3     -16.535   0.514   8.465  0.00  0.00    +0.000 A 
ATOM    115  C   UNK A   3     -16.131  -0.623   7.805  0.00  0.00    +0.000 A 
ATOM    116  C   UNK A   3     -15.016  -1.285   8.209  0.00  0.00    +0.000 A 
ATOM    117  C   UNK A   3     -14.311  -0.828   9.337  0.00  0.00    +0.000 A 
ENDBRANCH 111 112
ENDBRANCH  87 111
ENDBRANCH  83  87
ENDBRANCH   1  84
BRANCH   9 118
ATOM    118  C   UNK A   6      -7.176  -8.516  12.479  0.00  0.00    +0.000 C 
ATOM    119  O   UNK A   6      -8.254  -8.905  12.977  0.00  0.00    +0.000 OA
ENDBRANCH   9 118
BRANCH   5 120
ATOM    120  CB  VAL A   5     -10.269  -5.998  10.449  0.00  0.00    +0.000 C 
BRANCH 120 121
ATOM    121  CG  VAL A   5     -11.719  -5.737  10.154  0.00  0.00    +0.000 A 
ATOM    122  CD2 VAL A   5     -12.713  -6.414  10.837  0.00  0.00    +0.000 A 
ATOM    123  CE2 VAL A   5     -14.043  -6.201  10.532  0.00  0.00    +0.000 A 
ATOM    124  CZ  VAL A   5     -14.414  -5.362   9.480  0.00  0.00    +0.000 A 
ATOM    125  CE1 VAL A   5     -13.417  -4.691   8.769  0.00  0.00    +0.000 A 
ATOM    126  CD1 VAL A   5     -12.080  -4.895   9.103  0.00  0.00    +0.000 A 
ENDBRANCH 120 121
ENDBRANCH   5 120
TORSDOF 42
REMARK  Name = ../refined-set-2016/3p58/3p58_pocket.pdb
REMARK  153 active torsions:
REMARK  status: ('A' for Active; 'I' for Inactive)
REMARK    1  A    between atoms: _1  and  _3
REMARK    2  A    between atoms: _3  and  _4
REMARK    3  A    between atoms: _3  and  _6
REMARK    4  A    between atoms: _6  and  _7
REMARK    5  A    between atoms: _17  and  _19
REMARK    6  A    between atoms: _19  and  _20
REMARK    7  A    between atoms: _19  and  _22
REMARK    8  A    between atoms: _22  and  _23
REMARK    9  A    between atoms: _28  and  _29
REMARK   10  A    between atoms: _31  and  _33
REMARK   11  A    between atoms: _33  and  _34
REMARK   12  A    between atoms: _33  and  _36
REMARK   13  A    between atoms: _36  and  _37
REMARK   14  A    between atoms: _39  and  _41
REMARK   15  A    between atoms: _41  and  _42
REMARK   16  A    between atoms: _41  and  _44
REMARK   17  A    between atoms: _44  and  _45
REMARK   18  A    between atoms: _48  and  _50
REMARK   19  A    between atoms: _50  and  _51
REMARK   20  A    between atoms: _50  and  _53
REMARK   21  A    between atoms: _53  and  _54
REMARK   22  A    between atoms: _59  and  _61
REMARK   23  A    between atoms: _61  and  _62
REMARK   24  A    between atoms: _64  and  _66
REMARK   25  A    between atoms: _66  and  _67
REMARK   26  A    between atoms: _66  and  _69
REMARK   27  A    between atoms: _69  and  _70
REMARK   28  A    between atoms: _75  and  _77
REMARK   29  A    between atoms: _77  and  _78
REMARK   30  A    between atoms: _81  and  _83
REMARK   31  A    between atoms: _83  and  _84
REMARK   32  A    between atoms: _83  and  _86
REMARK   33  A    between atoms: _86  and  _87
REMARK   34  A    between atoms: _93  and  _95
REMARK   35  A    between atoms: _95  and  _96
REMARK   36  A    between atoms: _95  and  _98
REMARK   37  A    between atoms: _98  and  _99
REMARK   38  A    between atoms: _104  and  _106
REMARK   39  A    between atoms: _106  and  _107
REMARK   40  A    between atoms: _106  and  _109
REMARK   41  A    between atoms: _112  and  _114
REMARK   42  A    between atoms: _114  and  _115
REMARK   43  A    between atoms: _114  and  _117
REMARK   44  A    between atoms: _117  and  _118
REMARK   45  A    between atoms: _121  and  _123
REMARK   46  A    between atoms: _123  and  _124
REMARK   47  A    between atoms: _123  and  _126
REMARK   48  A    between atoms: _126  and  _127
REMARK   49  A    between atoms: _127  and  _128
REMARK   50  A    between atoms: _133  and  _135
REMARK   51  A    between atoms: _135  and  _136
REMARK   52  A    between atoms: _135  and  _138
REMARK   53  A    between atoms: _138  and  _139
REMARK   54  A    between atoms: _145  and  _147
REMARK   55  A    between atoms: _158  and  _161
REMARK   56  A    between atoms: _161  and  _162
REMARK   57  A    between atoms: _170  and  _171
REMARK   58  A    between atoms: _179  and  _181
REMARK   59  A    between atoms: _181  and  _182
REMARK   60  A    between atoms: _181  and  _184
REMARK   61  A    between atoms: _184  and  _185
REMARK   62  A    between atoms: _185  and  _186
REMARK   63  A    between atoms: _189  and  _191
REMARK   64  A    between atoms: _191  and  _192
REMARK   65  A    between atoms: _191  and  _194
REMARK   66  A    between atoms: _194  and  _195
REMARK   67  A    between atoms: _195  and  _196
REMARK   68  A    between atoms: _199  and  _201
REMARK   69  A    between atoms: _201  and  _202
REMARK   70  A    between atoms: _201  and  _204
REMARK   71  A    between atoms: _204  and  _205
REMARK   72  A    between atoms: _208  and  _210
REMARK   73  A    between atoms: _210  and  _211
REMARK   74  A    between atoms: _210  and  _213
REMARK   75  A    between atoms: _213  and  _214
REMARK   76  A    between atoms: _215  and  ZN_425
REMARK   77  A    between atoms: _219  and  _221
REMARK   78  A    between atoms: _221  and  _222
REMARK   79  A    between atoms: _221  and  _224
REMARK   80  A    between atoms: _224  and  _225
REMARK   81  A    between atoms: _228  and  _230
REMARK   82  A    between atoms: _230  and  _231
REMARK   83  A    between atoms: _230  and  _233
REMARK   84  A    between atoms: _236  and  _238
REMARK   85  A    between atoms: _238  and  _239
REMARK   86  A    between atoms: _238  and  _241
REMARK   87  A    between atoms: _241  and  _242
REMARK   88  A    between atoms: _247  and  _249
REMARK   89  A    between atoms: _249  and  _250
REMARK   90  A    between atoms: _249  and  _252
REMARK   91  A    between atoms: _252  and  _253
REMARK   92  A    between atoms: _259  and  _261
REMARK   93  A    between atoms: _261  and  _262
REMARK   94  A    between atoms: _261  and  _264
REMARK   95  A    between atoms: _267  and  _269
REMARK   96  A    between atoms: _269  and  _270
REMARK   97  A    between atoms: _269  and  _272
REMARK   98  A    between atoms: _272  and  _273
REMARK   99  A    between atoms: _276  and  _278
REMARK  100  A    between atoms: _278  and  _279
REMARK  101  A    between atoms: _282  and  _284
REMARK  102  A    between atoms: _284  and  _285
REMARK  103  A    between atoms: _284  and  _287
REMARK  104  A    between atoms: _290  and  _292
REMARK  105  A    between atoms: _292  and  _293
REMARK  106  A    between atoms: _292  and  _295
REMARK  107  A    between atoms: _295  and  _296
REMARK  108  A    between atoms: _299  and  _301
REMARK  109  A    between atoms: _301  and  _302
REMARK  110  A    between atoms: _301  and  _304
REMARK  111  A    between atoms: _304  and  _305
REMARK  112  A    between atoms: _307  and  _309
REMARK  113  A    between atoms: _309  and  _310
REMARK  114  A    between atoms: _309  and  _312
REMARK  115  A    between atoms: _312  and  _313
REMARK  116  A    between atoms: _316  and  _318
REMARK  117  A    between atoms: _318  and  _319
REMARK  118  A    between atoms: _318  and  _321
REMARK  119  A    between atoms: _321  and  _322
REMARK  120  A    between atoms: _325  and  _327
REMARK  121  A    between atoms: _327  and  _328
REMARK  122  A    between atoms: _327  and  _330
REMARK  123  A    between atoms: _330  and  _331
REMARK  124  A    between atoms: _335  and  _336
REMARK  125  A    between atoms: _342  and  _343
REMARK  126  A    between atoms: _348  and  _350
REMARK  127  A    between atoms: _350  and  _351
REMARK  128  A    between atoms: _350  and  _353
REMARK  129  A    between atoms: _353  and  _354
REMARK  130  A    between atoms: _357  and  _359
REMARK  131  A    between atoms: _359  and  _360
REMARK  132  A    between atoms: _359  and  _362
REMARK  133  A    between atoms: _362  and  _363
REMARK  134  A    between atoms: _366  and  _368
REMARK  135  A    between atoms: _368  and  _369
REMARK  136  A    between atoms: _368  and  _371
REMARK  137  A    between atoms: _373  and  _375
REMARK  138  A    between atoms: _375  and  _376
REMARK  139  A    between atoms: _375  and  _378
REMARK  140  A    between atoms: _381  and  _383
REMARK  141  A    between atoms: _383  and  _384
REMARK  142  A    between atoms: _383  and  _386
REMARK  143  A    between atoms: _386  and  _387
REMARK  144  A    between atoms: _397  and  _399
REMARK  145  A    between atoms: _399  and  _400
REMARK  146  A    between atoms: _399  and  _402
REMARK  147  A    between atoms: _402  and  _403
REMARK  148  A    between atoms: _408  and  _410
REMARK  149  A    between atoms: _410  and  _411
REMARK  150  A    between atoms: _410  and  _413
REMARK  151  A    between atoms: _413  and  _414
REMARK  152  A    between atoms: _414  and  _415
REMARK  153  A    between atoms: _415  and  _416
REMARK                            x       y       z     vdW  Elec       q    Type
REMARK                         _______ _______ _______ _____ _____    ______ ____
ROOT
ATOM      1  CA  GLU A   1      -5.534  -8.276  19.514  0.00  0.00    +0.134 C 
ENDROOT
BRANCH   1   2
ATOM      2  N   GLU A   1      -6.549  -8.917  18.679  0.00  0.00    -0.239 NA
ATOM      3  H   GLU A   1      -7.405  -8.392  18.408  0.00  0.00    +0.142 HD
ENDBRANCH   1   2
BRANCH   1   4
ATOM      4  C   GLU A   1      -5.883  -8.428  20.987  0.00  0.00    +0.224 C 
ATOM      5  O   GLU A   1      -5.109  -9.038  21.730  0.00  0.00    -0.287 OA
ENDBRANCH   1   4
BRANCH   1   6
ATOM      6  CB  GLU A   1      -5.351  -6.837  19.098  0.00  0.00    +0.037 C 
BRANCH   6   7
ATOM      7  CG  GLU A   1      -4.863  -6.725  17.672  0.00  0.00    +0.116 C 
BRANCH   7   8
ATOM      8  CD  GLU A   1      -4.295  -5.352  17.362  0.00  0.00    +0.365 C 
ATOM      9  OE2 GLU A   1      -4.994  -4.356  17.554  0.00  0.00    -0.246 OA
ATOM     10  OE1 GLU A   1      -3.131  -5.298  16.937  0.00  0.00    -0.246 OA
ENDBRANCH   7   8
ENDBRANCH   6   7
ENDBRANCH   1   6
TORSDOF 5
REMARK  Name = ../refined-set-2016/3p58/3p58_pocket.pdb
REMARK  153 active torsions:
REMARK  status: ('A' for Active; 'I' for Inactive)
REMARK    1  A    between atoms: _1  and  _3
REMARK    2  A    between atoms: _3  and  _4
REMARK    3  A    between atoms: _3  and  _6
REMARK    4  A    between atoms: _6  and  _7
REMARK    5  A    between atoms: _17  and  _19
REMARK    6  A    between atoms: _19  and  _20
REMARK    7  A    between atoms: _19  and  _22
REMARK    8  A    between atoms: _22  and  _23
REMARK    9  A    between atoms: _28  and  _29
REMARK   10  A    between atoms: _31  and  _33
REMARK   11  A    between atoms: _33  and  _34
REMARK   12  A    between atoms: _33  and  _36
REMARK   13  A    between atoms: _36  and  _37
REMARK   14  A    between atoms: _39  and  _41
REMARK   15  A    between atoms: _41  and  _42
REMARK   16  A    between atoms: _41  and  _44
REMARK   17  A    between atoms: _44  and  _45
REMARK   18  A    between atoms: _48  and  _50
REMARK   19  A    between atoms: _50  and  _51
REMARK   20  A    between atoms: _50  and  _53
REMARK   21  A    between atoms: _53  and  _54
REMARK   22  A    between atoms: _59  and  _61
REMARK   23  A    between atoms: _61  and  _62
REMARK   24  A    between atoms: _64  and  _66
REMARK   25  A    between atoms: _66  and  _67
REMARK   26  A    between atoms: _66  and  _69
REMARK   27  A    between atoms: _69  and  _70
REMARK   28  A    between atoms: _75  and  _77
REMARK   29  A    between atoms: _77  and  _78
REMARK   30  A    between atoms: _81  and  _83
REMARK   31  A    between atoms: _83  and  _84
REMARK   32  A    between atoms: _83  and  _86
REMARK   33  A    between atoms: _86  and  _87
REMARK   34  A    between atoms: _93  and  _95
REMARK   35  A    between atoms: _95  and  _96
REMARK   36  A    between atoms: _95  and  _98
REMARK   37  A    between atoms: _98  and  _99
REMARK   38  A    between atoms: _104  and  _106
REMARK   39  A    between atoms: _106  and  _107
REMARK   40  A    between atoms: _106  and  _109
REMARK   41  A    between atoms: _112  and  _114
REMARK   42  A    between atoms: _114  and  _115
REMARK   43  A    between atoms: _114  and  _117
REMARK   44  A    between atoms: _117  and  _118
REMARK   45  A    between atoms: _121  and  _123
REMARK   46  A    between atoms: _123  and  _124
REMARK   47  A    between atoms: _123  and  _126
REMARK   48  A    between atoms: _126  and  _127
REMARK   49  A    between atoms: _127  and  _128
REMARK   50  A    between atoms: _133  and  _135
REMARK   51  A    between atoms: _135  and  _136
REMARK   52  A    between atoms: _135  and  _138
REMARK   53  A    between atoms: _138  and  _139
REMARK   54  A    between atoms: _145  and  _147
REMARK   55  A    between atoms: _158  and  _161
REMARK   56  A    between atoms: _161  and  _162
REMARK   57  A    between atoms: _170  and  _171
REMARK   58  A    between atoms: _179  and  _181
REMARK   59  A    between atoms: _181  and  _182
REMARK   60  A    between atoms: _181  and  _184
REMARK   61  A    between atoms: _184  and  _185
REMARK   62  A    between atoms: _185  and  _186
REMARK   63  A    between atoms: _189  and  _191
REMARK   64  A    between atoms: _191  and  _192
REMARK   65  A    between atoms: _191  and  _194
REMARK   66  A    between atoms: _194  and  _195
REMARK   67  A    between atoms: _195  and  _196
REMARK   68  A    between atoms: _199  and  _201
REMARK   69  A    between atoms: _201  and  _202
REMARK   70  A    between atoms: _201  and  _204
REMARK   71  A    between atoms: _204  and  _205
REMARK   72  A    between atoms: _208  and  _210
REMARK   73  A    between atoms: _210  and  _211
REMARK   74  A    between atoms: _210  and  _213
REMARK   75  A    between atoms: _213  and  _214
REMARK   76  A    between atoms: _215  and  ZN_425
REMARK   77  A    between atoms: _219  and  _221
REMARK   78  A    between atoms: _221  and  _222
REMARK   79  A    between atoms: _221  and  _224
REMARK   80  A    between atoms: _224  and  _225
REMARK   81  A    between atoms: _228  and  _230
REMARK   82  A    between atoms: _230  and  _231
REMARK   83  A    between atoms: _230  and  _233
REMARK   84  A    between atoms: _236  and  _238
REMARK   85  A    between atoms: _238  and  _239
REMARK   86  A    between atoms: _238  and  _241
REMARK   87  A    between atoms: _241  and  _242
REMARK   88  A    between atoms: _247  and  _249
REMARK   89  A    between atoms: _249  and  _250
REMARK   90  A    between atoms: _249  and  _252
REMARK   91  A    between atoms: _252  and  _253
REMARK   92  A    between atoms: _259  and  _261
REMARK   93  A    between atoms: _261  and  _262
REMARK   94  A    between atoms: _261  and  _264
REMARK   95  A    between atoms: _267  and  _269
REMARK   96  A    between atoms: _269  and  _270
REMARK   97  A    between atoms: _269  and  _272
REMARK   98  A    between atoms: _272  and  _273
REMARK   99  A    between atoms: _276  and  _278
REMARK  100  A    between atoms: _278  and  _279
REMARK  101  A    between atoms: _282  and  _284
REMARK  102  A    between atoms: _284  and  _285
REMARK  103  A    between atoms: _284  and  _287
REMARK  104  A    between atoms: _290  and  _292
REMARK  105  A    between atoms: _292  and  _293
REMARK  106  A    between atoms: _292  and  _295
REMARK  107  A    between atoms: _295  and  _296
REMARK  108  A    between atoms: _299  and  _301
REMARK  109  A    between atoms: _301  and  _302
REMARK  110  A    between atoms: _301  and  _304
REMARK  111  A    between atoms: _304  and  _305
REMARK  112  A    between atoms: _307  and  _309
REMARK  113  A    between atoms: _309  and  _310
REMARK  114  A    between atoms: _309  and  _312
REMARK  115  A    between atoms: _312  and  _313
REMARK  116  A    between atoms: _316  and  _318
REMARK  117  A    between atoms: _318  and  _319
REMARK  118  A    between atoms: _318  and  _321
REMARK  119  A    between atoms: _321  and  _322
REMARK  120  A    between atoms: _325  and  _327
REMARK  121  A    between atoms: _327  and  _328
REMARK  122  A    between atoms: _327  and  _330
REMARK  123  A    between atoms: _330  and  _331
REMARK  124  A    between atoms: _335  and  _336
REMARK  125  A    between atoms: _342  and  _343
REMARK  126  A    between atoms: _348  and  _350
REMARK  127  A    between atoms: _350  and  _351
REMARK  128  A    between atoms: _350  and  _353
REMARK  129  A    between atoms: _353  and  _354
REMARK  130  A    between atoms: _357  and  _359
REMARK  131  A    between atoms: _359  and  _360
REMARK  132  A    between atoms: _359  and  _362
REMARK  133  A    between atoms: _362  and  _363
REMARK  134  A    between atoms: _366  and  _368
REMARK  135  A    between atoms: _368  and  _369
REMARK  136  A    between atoms: _368  and  _371
REMARK  137  A    between atoms: _373  and  _375
REMARK  138  A    between atoms: _375  and  _376
REMARK  139  A    between atoms: _375  and  _378
REMARK  140  A    between atoms: _381  and  _383
REMARK  141  A    between atoms: _383  and  _384
REMARK  142  A    between atoms: _383  and  _386
REMARK  143  A    between atoms: _386  and  _387
REMARK  144  A    between atoms: _397  and  _399
REMARK  145  A    between atoms: _399  and  _400
REMARK  146  A    between atoms: _399  and  _402
REMARK  147  A    between atoms: _402  and  _403
REMARK  148  A    between atoms: _408  and  _410
REMARK  149  A    between atoms: _410  and  _411
REMARK  150  A    between atoms: _410  and  _413
REMARK  151  A    between atoms: _413  and  _414
REMARK  152  A    between atoms: _414  and  _415
REMARK  153  A    between atoms: _415  and  _416
REMARK                            x       y       z     vdW  Elec       q    Type
REMARK                         _______ _______ _______ _____ _____    ______ ____
ROOT
ATOM      1  CB  PHE A   1      -7.750  12.493  13.870  0.00  0.00    +0.051 C 
ENDROOT
BRANCH   1   2
ATOM      2  CG  PHE A   1      -7.180  11.137  14.157  0.00  0.00    -0.020 A 
ATOM      3  CD2 PHE A   1      -7.906  10.176  14.843  0.00  0.00    -0.004 A 
ATOM      4  CE2 PHE A   1      -7.360   8.947  15.084  0.00  0.00    -0.000 A 
ATOM      5  CZ  PHE A   1      -6.079   8.675  14.657  0.00  0.00    -0.000 A 
ATOM      6  CE1 PHE A   1      -5.363   9.627  13.957  0.00  0.00    -0.000 A 
ATOM      7  CD1 PHE A   1      -5.898  10.831  13.729  0.00  0.00    -0.004 A 
ENDBRANCH   1   2
BRANCH   1   8
ATOM      8  CA  PHE A   1      -7.650  13.473  15.038  0.00  0.00    +0.137 C 
BRANCH   8   9
ATOM      9  N   PHE A   1      -8.238  14.741  14.635  0.00  0.00    -0.239 NA
ATOM     10  H   PHE A   1      -8.581  14.839  13.658  0.00  0.00    +0.142 HD
ENDBRANCH   8   9
BRANCH   8  11
ATOM     11  C   PHE A   1      -6.207  13.682  15.450  0.00  0.00    +0.224 C 
ATOM     12  O   PHE A   1      -5.727  13.093  16.430  0.00  0.00    -0.287 OA
ENDBRANCH   8  11
ENDBRANCH   1   8
TORSDOF 4
REMARK  Name = ../refined-set-2016/3p58/3p58_pocket.pdb
REMARK  153 active torsions:
REMARK  status: ('A' for Active; 'I' for Inactive)
REMARK    1  A    between atoms: _1  and  _3
REMARK    2  A    between atoms: _3  and  _4
REMARK    3  A    between atoms: _3  and  _6
REMARK    4  A    between atoms: _6  and  _7
REMARK    5  A    between atoms: _17  and  _19
REMARK    6  A    between atoms: _19  and  _20
REMARK    7  A    between atoms: _19  and  _22
REMARK    8  A    between atoms: _22  and  _23
REMARK    9  A    between atoms: _28  and  _29
REMARK   10  A    between atoms: _31  and  _33
REMARK   11  A    between atoms: _33  and  _34
REMARK   12  A    between atoms: _33  and  _36
REMARK   13  A    between atoms: _36  and  _37
REMARK   14  A    between atoms: _39  and  _41
REMARK   15  A    between atoms: _41  and  _42
REMARK   16  A    between atoms: _41  and  _44
REMARK   17  A    between atoms: _44  and  _45
REMARK   18  A    between atoms: _48  and  _50
REMARK   19  A    between atoms: _50  and  _51
REMARK   20  A    between atoms: _50  and  _53
REMARK   21  A    between atoms: _53  and  _54
REMARK   22  A    between atoms: _59  and  _61
REMARK   23  A    between atoms: _61  and  _62
REMARK   24  A    between atoms: _64  and  _66
REMARK   25  A    between atoms: _66  and  _67
REMARK   26  A    between atoms: _66  and  _69
REMARK   27  A    between atoms: _69  and  _70
REMARK   28  A    between atoms: _75  and  _77
REMARK   29  A    between atoms: _77  and  _78
REMARK   30  A    between atoms: _81  and  _83
REMARK   31  A    between atoms: _83  and  _84
REMARK   32  A    between atoms: _83  and  _86
REMARK   33  A    between atoms: _86  and  _87
REMARK   34  A    between atoms: _93  and  _95
REMARK   35  A    between atoms: _95  and  _96
REMARK   36  A    between atoms: _95  and  _98
REMARK   37  A    between atoms: _98  and  _99
REMARK   38  A    between atoms: _104  and  _106
REMARK   39  A    between atoms: _106  and  _107
REMARK   40  A    between atoms: _106  and  _109
REMARK   41  A    between atoms: _112  and  _114
REMARK   42  A    between atoms: _114  and  _115
REMARK   43  A    between atoms: _114  and  _117
REMARK   44  A    between atoms: _117  and  _118
REMARK   45  A    between atoms: _121  and  _123
REMARK   46  A    between atoms: _123  and  _124
REMARK   47  A    between atoms: _123  and  _126
REMARK   48  A    between atoms: _126  and  _127
REMARK   49  A    between atoms: _127  and  _128
REMARK   50  A    between atoms: _133  and  _135
REMARK   51  A    between atoms: _135  and  _136
REMARK   52  A    between atoms: _135  and  _138
REMARK   53  A    between atoms: _138  and  _139
REMARK   54  A    between atoms: _145  and  _147
REMARK   55  A    between atoms: _158  and  _161
REMARK   56  A    between atoms: _161  and  _162
REMARK   57  A    between atoms: _170  and  _171
REMARK   58  A    between atoms: _179  and  _181
REMARK   59  A    between atoms: _181  and  _182
REMARK   60  A    between atoms: _181  and  _184
REMARK   61  A    between atoms: _184  and  _185
REMARK   62  A    between atoms: _185  and  _186
REMARK   63  A    between atoms: _189  and  _191
REMARK   64  A    between atoms: _191  and  _192
REMARK   65  A    between atoms: _191  and  _194
REMARK   66  A    between atoms: _194  and  _195
REMARK   67  A    between atoms: _195  and  _196
REMARK   68  A    between atoms: _199  and  _201
REMARK   69  A    between atoms: _201  and  _202
REMARK   70  A    between atoms: _201  and  _204
REMARK   71  A    between atoms: _204  and  _205
REMARK   72  A    between atoms: _208  and  _210
REMARK   73  A    between atoms: _210  and  _211
REMARK   74  A    between atoms: _210  and  _213
REMARK   75  A    between atoms: _213  and  _214
REMARK   76  A    between atoms: _215  and  ZN_425
REMARK   77  A    between atoms: _219  and  _221
REMARK   78  A    between atoms: _221  and  _222
REMARK   79  A    between atoms: _221  and  _224
REMARK   80  A    between atoms: _224  and  _225
REMARK   81  A    between atoms: _228  and  _230
REMARK   82  A    between atoms: _230  and  _231
REMARK   83  A    between atoms: _230  and  _233
REMARK   84  A    between atoms: _236  and  _238
REMARK   85  A    between atoms: _238  and  _239
REMARK   86  A    between atoms: _238  and  _241
REMARK   87  A    between atoms: _241  and  _242
REMARK   88  A    between atoms: _247  and  _249
REMARK   89  A    between atoms: _249  and  _250
REMARK   90  A    between atoms: _249  and  _252
REMARK   91  A    between atoms: _252  and  _253
REMARK   92  A    between atoms: _259  and  _261
REMARK   93  A    between atoms: _261  and  _262
REMARK   94  A    between atoms: _261  and  _264
REMARK   95  A    between atoms: _267  and  _269
REMARK   96  A    between atoms: _269  and  _270
REMARK   97  A    between atoms: _269  and  _272
REMARK   98  A    between atoms: _272  and  _273
REMARK   99  A    between atoms: _276  and  _278
REMARK  100  A    between atoms: _278  and  _279
REMARK  101  A    between atoms: _282  and  _284
REMARK  102  A    between atoms: _284  and  _285
REMARK  103  A    between atoms: _284  and  _287
REMARK  104  A    between atoms: _290  and  _292
REMARK  105  A    between atoms: _292  and  _293
REMARK  106  A    between atoms: _292  and  _295
REMARK  107  A    between atoms: _295  and  _296
REMARK  108  A    between atoms: _299  and  _301
REMARK  109  A    between atoms: _301  and  _302
REMARK  110  A    between atoms: _301  and  _304
REMARK  111  A    between atoms: _304  and  _305
REMARK  112  A    between atoms: _307  and  _309
REMARK  113  A    between atoms: _309  and  _310
REMARK  114  A    between atoms: _309  and  _312
REMARK  115  A    between atoms: _312  and  _313
REMARK  116  A    between atoms: _316  and  _318
REMARK  117  A    between atoms: _318  and  _319
REMARK  118  A    between atoms: _318  and  _321
REMARK  119  A    between atoms: _321  and  _322
REMARK  120  A    between atoms: _325  and  _327
REMARK  121  A    between atoms: _327  and  _328
REMARK  122  A    between atoms: _327  and  _330
REMARK  123  A    between atoms: _330  and  _331
REMARK  124  A    between atoms: _335  and  _336
REMARK  125  A    between atoms: _342  and  _343
REMARK  126  A    between atoms: _348  and  _350
REMARK  127  A    between atoms: _350  and  _351
REMARK  128  A    between atoms: _350  and  _353
REMARK  129  A    between atoms: _353  and  _354
REMARK  130  A    between atoms: _357  and  _359
REMARK  131  A    between atoms: _359  and  _360
REMARK  132  A    between atoms: _359  and  _362
REMARK  133  A    between atoms: _362  and  _363
REMARK  134  A    between atoms: _366  and  _368
REMARK  135  A    between atoms: _368  and  _369
REMARK  136  A    between atoms: _368  and  _371
REMARK  137  A    between atoms: _373  and  _375
REMARK  138  A    between atoms: _375  and  _376
REMARK  139  A    between atoms: _375  and  _378
REMARK  140  A    between atoms: _381  and  _383
REMARK  141  A    between atoms: _383  and  _384
REMARK  142  A    between atoms: _383  and  _386
REMARK  143  A    between atoms: _386  and  _387
REMARK  144  A    between atoms: _397  and  _399
REMARK  145  A    between atoms: _399  and  _400
REMARK  146  A    between atoms: _399  and  _402
REMARK  147  A    between atoms: _402  and  _403
REMARK  148  A    between atoms: _408  and  _410
REMARK  149  A    between atoms: _410  and  _411
REMARK  150  A    between atoms: _410  and  _413
REMARK  151  A    between atoms: _413  and  _414
REMARK  152  A    between atoms: _414  and  _415
REMARK  153  A    between atoms: _415  and  _416
REMARK                            x       y       z     vdW  Elec       q    Type
REMARK                         _______ _______ _______ _____ _____    ______ ____
ROOT
ATOM      1  CA  VAL A   1      -3.980  11.379  19.653  0.00  0.00    +0.133 C 
ENDROOT
BRANCH   1   2
ATOM      2  CB  VAL A   1      -3.345  10.664  18.441  0.00  0.00    +0.023 C 
ATOM      3  CG2 VAL A   1      -4.409  10.031  17.610  0.00  0.00    +0.002 C 
ATOM      4  CG1 VAL A   1      -2.502  11.612  17.609  0.00  0.00    +0.002 C 
ENDBRANCH   1   2
BRANCH   1   5
ATOM      5  N   VAL A   1      -4.891  12.478  19.291  0.00  0.00    -0.239 NA
ATOM      6  H   VAL A   1      -4.911  12.840  18.316  0.00  0.00    +0.142 HD
ENDBRANCH   1   5
BRANCH   1   7
ATOM      7  C   VAL A   1      -2.877  11.812  20.605  0.00  0.00    +0.224 C 
ATOM      8  O   VAL A   1      -2.195  10.961  21.153  0.00  0.00    -0.287 OA
ENDBRANCH   1   7
TORSDOF 3
REMARK  Name = ../refined-set-2016/3p58/3p58_pocket.pdb
REMARK  153 active torsions:
REMARK  status: ('A' for Active; 'I' for Inactive)
REMARK    1  A    between atoms: _1  and  _3
REMARK    2  A    between atoms: _3  and  _4
REMARK    3  A    between atoms: _3  and  _6
REMARK    4  A    between atoms: _6  and  _7
REMARK    5  A    between atoms: _17  and  _19
REMARK    6  A    between atoms: _19  and  _20
REMARK    7  A    between atoms: _19  and  _22
REMARK    8  A    between atoms: _22  and  _23
REMARK    9  A    between atoms: _28  and  _29
REMARK   10  A    between atoms: _31  and  _33
REMARK   11  A    between atoms: _33  and  _34
REMARK   12  A    between atoms: _33  and  _36
REMARK   13  A    between atoms: _36  and  _37
REMARK   14  A    between atoms: _39  and  _41
REMARK   15  A    between atoms: _41  and  _42
REMARK   16  A    between atoms: _41  and  _44
REMARK   17  A    between atoms: _44  and  _45
REMARK   18  A    between atoms: _48  and  _50
REMARK   19  A    between atoms: _50  and  _51
REMARK   20  A    between atoms: _50  and  _53
REMARK   21  A    between atoms: _53  and  _54
REMARK   22  A    between atoms: _59  and  _61
REMARK   23  A    between atoms: _61  and  _62
REMARK   24  A    between atoms: _64  and  _66
REMARK   25  A    between atoms: _66  and  _67
REMARK   26  A    between atoms: _66  and  _69
REMARK   27  A    between atoms: _69  and  _70
REMARK   28  A    between atoms: _75  and  _77
REMARK   29  A    between atoms: _77  and  _78
REMARK   30  A    between atoms: _81  and  _83
REMARK   31  A    between atoms: _83  and  _84
REMARK   32  A    between atoms: _83  and  _86
REMARK   33  A    between atoms: _86  and  _87
REMARK   34  A    between atoms: _93  and  _95
REMARK   35  A    between atoms: _95  and  _96
REMARK   36  A    between atoms: _95  and  _98
REMARK   37  A    between atoms: _98  and  _99
REMARK   38  A    between atoms: _104  and  _106
REMARK   39  A    between atoms: _106  and  _107
REMARK   40  A    between atoms: _106  and  _109
REMARK   41  A    between atoms: _112  and  _114
REMARK   42  A    between atoms: _114  and  _115
REMARK   43  A    between atoms: _114  and  _117
REMARK   44  A    between atoms: _117  and  _118
REMARK   45  A    between atoms: _121  and  _123
REMARK   46  A    between atoms: _123  and  _124
REMARK   47  A    between atoms: _123  and  _126
REMARK   48  A    between atoms: _126  and  _127
REMARK   49  A    between atoms: _127  and  _128
REMARK   50  A    between atoms: _133  and  _135
REMARK   51  A    between atoms: _135  and  _136
REMARK   52  A    between atoms: _135  and  _138
REMARK   53  A    between atoms: _138  and  _139
REMARK   54  A    between atoms: _145  and  _147
REMARK   55  A    between atoms: _158  and  _161
REMARK   56  A    between atoms: _161  and  _162
REMARK   57  A    between atoms: _170  and  _171
REMARK   58  A    between atoms: _179  and  _181
REMARK   59  A    between atoms: _181  and  _182
REMARK   60  A    between atoms: _181  and  _184
REMARK   61  A    between atoms: _184  and  _185
REMARK   62  A    between atoms: _185  and  _186
REMARK   63  A    between atoms: _189  and  _191
REMARK   64  A    between atoms: _191  and  _192
REMARK   65  A    between atoms: _191  and  _194
REMARK   66  A    between atoms: _194  and  _195
REMARK   67  A    between atoms: _195  and  _196
REMARK   68  A    between atoms: _199  and  _201
REMARK   69  A    between atoms: _201  and  _202
REMARK   70  A    between atoms: _201  and  _204
REMARK   71  A    between atoms: _204  and  _205
REMARK   72  A    between atoms: _208  and  _210
REMARK   73  A    between atoms: _210  and  _211
REMARK   74  A    between atoms: _210  and  _213
REMARK   75  A    between atoms: _213  and  _214
REMARK   76  A    between atoms: _215  and  ZN_425
REMARK   77  A    between atoms: _219  and  _221
REMARK   78  A    between atoms: _221  and  _222
REMARK   79  A    between atoms: _221  and  _224
REMARK   80  A    between atoms: _224  and  _225
REMARK   81  A    between atoms: _228  and  _230
REMARK   82  A    between atoms: _230  and  _231
REMARK   83  A    between atoms: _230  and  _233
REMARK   84  A    between atoms: _236  and  _238
REMARK   85  A    between atoms: _238  and  _239
REMARK   86  A    between atoms: _238  and  _241
REMARK   87  A    between atoms: _241  and  _242
REMARK   88  A    between atoms: _247  and  _249
REMARK   89  A    between atoms: _249  and  _250
REMARK   90  A    between atoms: _249  and  _252
REMARK   91  A    between atoms: _252  and  _253
REMARK   92  A    between atoms: _259  and  _261
REMARK   93  A    between atoms: _261  and  _262
REMARK   94  A    between atoms: _261  and  _264
REMARK   95  A    between atoms: _267  and  _269
REMARK   96  A    between atoms: _269  and  _270
REMARK   97  A    between atoms: _269  and  _272
REMARK   98  A    between atoms: _272  and  _273
REMARK   99  A    between atoms: _276  and  _278
REMARK  100  A    between atoms: _278  and  _279
REMARK  101  A    between atoms: _282  and  _284
REMARK  102  A    between atoms: _284  and  _285
REMARK  103  A    between atoms: _284  and  _287
REMARK  104  A    between atoms: _290  and  _292
REMARK  105  A    between atoms: _292  and  _293
REMARK  106  A    between atoms: _292  and  _295
REMARK  107  A    between atoms: _295  and  _296
REMARK  108  A    between atoms: _299  and  _301
REMARK  109  A    between atoms: _301  and  _302
REMARK  110  A    between atoms: _301  and  _304
REMARK  111  A    between atoms: _304  and  _305
REMARK  112  A    between atoms: _307  and  _309
REMARK  113  A    between atoms: _309  and  _310
REMARK  114  A    between atoms: _309  and  _312
REMARK  115  A    between atoms: _312  and  _313
REMARK  116  A    between atoms: _316  and  _318
REMARK  117  A    between atoms: _318  and  _319
REMARK  118  A    between atoms: _318  and  _321
REMARK  119  A    between atoms: _321  and  _322
REMARK  120  A    between atoms: _325  and  _327
REMARK  121  A    between atoms: _327  and  _328
REMARK  122  A    between atoms: _327  and  _330
REMARK  123  A    between atoms: _330  and  _331
REMARK  124  A    between atoms: _335  and  _336
REMARK  125  A    between atoms: _342  and  _343
REMARK  126  A    between atoms: _348  and  _350
REMARK  127  A    between atoms: _350  and  _351
REMARK  128  A    between atoms: _350  and  _353
REMARK  129  A    between atoms: _353  and  _354
REMARK  130  A    between atoms: _357  and  _359
REMARK  131  A    between atoms: _359  and  _360
REMARK  132  A    between atoms: _359  and  _362
REMARK  133  A    between atoms: _362  and  _363
REMARK  134  A    between atoms: _366  and  _368
REMARK  135  A    between atoms: _368  and  _369
REMARK  136  A    between atoms: _368  and  _371
REMARK  137  A    between atoms: _373  and  _375
REMARK  138  A    between atoms: _375  and  _376
REMARK  139  A    between atoms: _375  and  _378
REMARK  140  A    between atoms: _381  and  _383
REMARK  141  A    between atoms: _383  and  _384
REMARK  142  A    between atoms: _383  and  _386
REMARK  143  A    between atoms: _386  and  _387
REMARK  144  A    between atoms: _397  and  _399
REMARK  145  A    between atoms: _399  and  _400
REMARK  146  A    between atoms: _399  and  _402
REMARK  147  A    between atoms: _402  and  _403
REMARK  148  A    between atoms: _408  and  _410
REMARK  149  A    between atoms: _410  and  _411
REMARK  150  A    between atoms: _410  and  _413
REMARK  151  A    between atoms: _413  and  _414
REMARK  152  A    between atoms: _414  and  _415
REMARK  153  A    between atoms: _415  and  _416
REMARK                            x       y       z     vdW  Elec       q    Type
REMARK                         _______ _______ _______ _____ _____    ______ ____
ROOT
ATOM      1  C   ALA A   2     -12.490   5.045  20.806  0.00  0.00    +0.241 C 
ATOM      2  N   VAL A   3     -12.020   3.821  21.060  0.00  0.00    -0.297 N 
ATOM      3  H   VAL A   3     -11.642   3.607  22.005  0.00  0.00    +0.150 HD
ATOM      4  O   ALA A   2     -12.928   5.365  19.694  0.00  0.00    -0.273 OA
ENDROOT
BRANCH   1   5
ATOM      5  CA  ALA A   2     -12.428   6.039  21.927  0.00  0.00    +0.149 C 
ATOM      6  CB  ALA A   2     -13.803   6.507  22.340  0.00  0.00    +0.031 C 
BRANCH   5   9
ATOM      7  C   LEU A   1     -10.575   7.628  22.049  0.00  0.00    +0.238 C 
ATOM      8  O   LEU A   1     -10.304   7.371  23.216  0.00  0.00    -0.274 OA
ATOM      9  N   ALA A   2     -11.624   7.145  21.401  0.00  0.00    -0.297 N 
ATOM     10  H   ALA A   2     -11.886   7.566  20.487  0.00  0.00    +0.150 HD
BRANCH   7  11
ATOM     11  CA  LEU A   1      -9.689   8.549  21.240  0.00  0.00    +0.145 C 
BRANCH  11  12
ATOM     12  N   LEU A   1      -9.006   9.495  22.109  0.00  0.00    -0.238 NA
ATOM     13  H   LEU A   1      -8.436   9.135  22.901  0.00  0.00    +0.142 HD
ENDBRANCH  11  12
BRANCH  11  14
ATOM     14  CB  LEU A   1      -8.722   7.685  20.448  0.00  0.00    +0.026 C 
BRANCH  14  15
ATOM     15  CG  LEU A   1      -7.797   8.327  19.430  0.00  0.00    +0.002 C 
ATOM     16  CD2 LEU A   1      -7.110   7.262  18.570  0.00  0.00    +0.000 C 
ATOM     17  CD1 LEU A   1      -8.406   9.389  18.557  0.00  0.00    +0.000 C 
ENDBRANCH  14  15
ENDBRANCH  11  14
ENDBRANCH   7  11
ENDBRANCH   5   9
ENDBRANCH   1   5
BRANCH   2  18
ATOM     18  CA  VAL A   3     -12.026   2.777  20.039  0.00  0.00    +0.149 C 
BRANCH  18  19
ATOM     19  C   VAL A   3     -12.973   1.686  20.500  0.00  0.00    +0.241 C 
ATOM     20  O   VAL A   3     -12.819   1.166  21.602  0.00  0.00    -0.273 OA
ATOM     21  N   LEU A   4     -13.974   1.399  19.663  0.00  0.00    -0.298 N 
ATOM     22  H   LEU A   4     -14.066   1.963  18.794  0.00  0.00    +0.150 HD
BRANCH  21  23
ATOM     23  CA  LEU A   4     -14.942   0.340  19.901  0.00  0.00    +0.137 C 
BRANCH  23  24
ATOM     24  C   LEU A   4     -14.369  -0.904  19.233  0.00  0.00    +0.227 C 
ATOM     25  O   LEU A   4     -14.156  -0.929  18.017  0.00  0.00    -0.286 OA
ENDBRANCH  23  24
BRANCH  23  26
ATOM     26  CB  LEU A   4     -16.293   0.741  19.318  0.00  0.00    +0.028 C 
BRANCH  26  27
ATOM     27  CG  LEU A   4     -17.491  -0.167  19.533  0.00  0.00    +0.002 C 
ATOM     28  CD2 LEU A   4     -17.758  -0.363  20.992  0.00  0.00    +0.000 C 
ATOM     29  CD1 LEU A   4     -18.699   0.465  18.878  0.00  0.00    +0.000 C 
ENDBRANCH  26  27
ENDBRANCH  23  26
ENDBRANCH  21  23
ENDBRANCH  18  19
BRANCH  18  30
ATOM     30  CB  VAL A   3     -10.631   2.224  19.727  0.00  0.00    +0.027 C 
ATOM     31  CG2 VAL A   3      -9.675   3.318  19.313  0.00  0.00    +0.002 C 
ATOM     32  CG1 VAL A   3     -10.711   1.191  18.581  0.00  0.00    +0.002 C 
ENDBRANCH  18  30
ENDBRANCH   2  18
TORSDOF 13
REMARK  Name = ../refined-set-2016/3p58/3p58_pocket.pdb
REMARK  153 active torsions:
REMARK  status: ('A' for Active; 'I' for Inactive)
REMARK    1  A    between atoms: _1  and  _3
REMARK    2  A    between atoms: _3  and  _4
REMARK    3  A    between atoms: _3  and  _6
REMARK    4  A    between atoms: _6  and  _7
REMARK    5  A    between atoms: _17  and  _19
REMARK    6  A    between atoms: _19  and  _20
REMARK    7  A    between atoms: _19  and  _22
REMARK    8  A    between atoms: _22  and  _23
REMARK    9  A    between atoms: _28  and  _29
REMARK   10  A    between atoms: _31  and  _33
REMARK   11  A    between atoms: _33  and  _34
REMARK   12  A    between atoms: _33  and  _36
REMARK   13  A    between atoms: _36  and  _37
REMARK   14  A    between atoms: _39  and  _41
REMARK   15  A    between atoms: _41  and  _42
REMARK   16  A    between atoms: _41  and  _44
REMARK   17  A    between atoms: _44  and  _45
REMARK   18  A    between atoms: _48  and  _50
REMARK   19  A    between atoms: _50  and  _51
REMARK   20  A    between atoms: _50  and  _53
REMARK   21  A    between atoms: _53  and  _54
REMARK   22  A    between atoms: _59  and  _61
REMARK   23  A    between atoms: _61  and  _62
REMARK   24  A    between atoms: _64  and  _66
REMARK   25  A    between atoms: _66  and  _67
REMARK   26  A    between atoms: _66  and  _69
REMARK   27  A    between atoms: _69  and  _70
REMARK   28  A    between atoms: _75  and  _77
REMARK   29  A    between atoms: _77  and  _78
REMARK   30  A    between atoms: _81  and  _83
REMARK   31  A    between atoms: _83  and  _84
REMARK   32  A    between atoms: _83  and  _86
REMARK   33  A    between atoms: _86  and  _87
REMARK   34  A    between atoms: _93  and  _95
REMARK   35  A    between atoms: _95  and  _96
REMARK   36  A    between atoms: _95  and  _98
REMARK   37  A    between atoms: _98  and  _99
REMARK   38  A    between atoms: _104  and  _106
REMARK   39  A    between atoms: _106  and  _107
REMARK   40  A    between atoms: _106  and  _109
REMARK   41  A    between atoms: _112  and  _114
REMARK   42  A    between atoms: _114  and  _115
REMARK   43  A    between atoms: _114  and  _117
REMARK   44  A    between atoms: _117  and  _118
REMARK   45  A    between atoms: _121  and  _123
REMARK   46  A    between atoms: _123  and  _124
REMARK   47  A    between atoms: _123  and  _126
REMARK   48  A    between atoms: _126  and  _127
REMARK   49  A    between atoms: _127  and  _128
REMARK   50  A    between atoms: _133  and  _135
REMARK   51  A    between atoms: _135  and  _136
REMARK   52  A    between atoms: _135  and  _138
REMARK   53  A    between atoms: _138  and  _139
REMARK   54  A    between atoms: _145  and  _147
REMARK   55  A    between atoms: _158  and  _161
REMARK   56  A    between atoms: _161  and  _162
REMARK   57  A    between atoms: _170  and  _171
REMARK   58  A    between atoms: _179  and  _181
REMARK   59  A    between atoms: _181  and  _182
REMARK   60  A    between atoms: _181  and  _184
REMARK   61  A    between atoms: _184  and  _185
REMARK   62  A    between atoms: _185  and  _186
REMARK   63  A    between atoms: _189  and  _191
REMARK   64  A    between atoms: _191  and  _192
REMARK   65  A    between atoms: _191  and  _194
REMARK   66  A    between atoms: _194  and  _195
REMARK   67  A    between atoms: _195  and  _196
REMARK   68  A    between atoms: _199  and  _201
REMARK   69  A    between atoms: _201  and  _202
REMARK   70  A    between atoms: _201  and  _204
REMARK   71  A    between atoms: _204  and  _205
REMARK   72  A    between atoms: _208  and  _210
REMARK   73  A    between atoms: _210  and  _211
REMARK   74  A    between atoms: _210  and  _213
REMARK   75  A    between atoms: _213  and  _214
REMARK   76  A    between atoms: _215  and  ZN_425
REMARK   77  A    between atoms: _219  and  _221
REMARK   78  A    between atoms: _221  and  _222
REMARK   79  A    between atoms: _221  and  _224
REMARK   80  A    between atoms: _224  and  _225
REMARK   81  A    between atoms: _228  and  _230
REMARK   82  A    between atoms: _230  and  _231
REMARK   83  A    between atoms: _230  and  _233
REMARK   84  A    between atoms: _236  and  _238
REMARK   85  A    between atoms: _238  and  _239
REMARK   86  A    between atoms: _238  and  _241
REMARK   87  A    between atoms: _241  and  _242
REMARK   88  A    between atoms: _247  and  _249
REMARK   89  A    between atoms: _249  and  _250
REMARK   90  A    between atoms: _249  and  _252
REMARK   91  A    between atoms: _252  and  _253
REMARK   92  A    between atoms: _259  and  _261
REMARK   93  A    between atoms: _261  and  _262
REMARK   94  A    between atoms: _261  and  _264
REMARK   95  A    between atoms: _267  and  _269
REMARK   96  A    between atoms: _269  and  _270
REMARK   97  A    between atoms: _269  and  _272
REMARK   98  A    between atoms: _272  and  _273
REMARK   99  A    between atoms: _276  and  _278
REMARK  100  A    between atoms: _278  and  _279
REMARK  101  A    between atoms: _282  and  _284
REMARK  102  A    between atoms: _284  and  _285
REMARK  103  A    between atoms: _284  and  _287
REMARK  104  A    between atoms: _290  and  _292
REMARK  105  A    between atoms: _292  and  _293
REMARK  106  A    between atoms: _292  and  _295
REMARK  107  A    between atoms: _295  and  _296
REMARK  108  A    between atoms: _299  and  _301
REMARK  109  A    between atoms: _301  and  _302
REMARK  110  A    between atoms: _301  and  _304
REMARK  111  A    between atoms: _304  and  _305
REMARK  112  A    between atoms: _307  and  _309
REMARK  113  A    between atoms: _309  and  _310
REMARK  114  A    between atoms: _309  and  _312
REMARK  115  A    between atoms: _312  and  _313
REMARK  116  A    between atoms: _316  and  _318
REMARK  117  A    between atoms: _318  and  _319
REMARK  118  A    between atoms: _318  and  _321
REMARK  119  A    between atoms: _321  and  _322
REMARK  120  A    between atoms: _325  and  _327
REMARK  121  A    between atoms: _327  and  _328
REMARK  122  A    between atoms: _327  and  _330
REMARK  123  A    between atoms: _330  and  _331
REMARK  124  A    between atoms: _335  and  _336
REMARK  125  A    between atoms: _342  and  _343
REMARK  126  A    between atoms: _348  and  _350
REMARK  127  A    between atoms: _350  and  _351
REMARK  128  A    between atoms: _350  and  _353
REMARK  129  A    between atoms: _353  and  _354
REMARK  130  A    between atoms: _357  and  _359
REMARK  131  A    between atoms: _359  and  _360
REMARK  132  A    between atoms: _359  and  _362
REMARK  133  A    between atoms: _362  and  _363
REMARK  134  A    between atoms: _366  and  _368
REMARK  135  A    between atoms: _368  and  _369
REMARK  136  A    between atoms: _368  and  _371
REMARK  137  A    between atoms: _373  and  _375
REMARK  138  A    between atoms: _375  and  _376
REMARK  139  A    between atoms: _375  and  _378
REMARK  140  A    between atoms: _381  and  _383
REMARK  141  A    between atoms: _383  and  _384
REMARK  142  A    between atoms: _383  and  _386
REMARK  143  A    between atoms: _386  and  _387
REMARK  144  A    between atoms: _397  and  _399
REMARK  145  A    between atoms: _399  and  _400
REMARK  146  A    between atoms: _399  and  _402
REMARK  147  A    between atoms: _402  and  _403
REMARK  148  A    between atoms: _408  and  _410
REMARK  149  A    between atoms: _410  and  _411
REMARK  150  A    between atoms: _410  and  _413
REMARK  151  A    between atoms: _413  and  _414
REMARK  152  A    between atoms: _414  and  _415
REMARK  153  A    between atoms: _415  and  _416
REMARK                            x       y       z     vdW  Elec       q    Type
REMARK                         _______ _______ _______ _____ _____    ______ ____
ROOT
ATOM      1  C   THR A   4       1.017   1.209  16.367  0.00  0.00    +0.246 C 
ATOM      2  O   THR A   4       0.507   2.152  16.975  0.00  0.00    -0.273 OA
ATOM      3  N   PRO A   5       2.294   1.229  15.935  0.00  0.00    -0.272 N 
ATOM      4  CA  PRO A   5       3.049   2.477  15.991  0.00  0.00    +0.152 C 
ATOM      5  CB  PRO A   5       4.281   2.149  15.132  0.00  0.00    +0.031 C 
ATOM      6  CG  PRO A   5       4.492   0.695  15.394  0.00  0.00    +0.024 C 
ATOM      7  CD  PRO A   5       3.067   0.139  15.332  0.00  0.00    +0.094 C 
ENDROOT
BRANCH   4   8
ATOM      8  C   PRO A   5       2.206   3.647  15.451  0.00  0.00    +0.244 C 
ATOM      9  N   PRO A   6       2.243   4.810  16.099  0.00  0.00    -0.272 N 
ATOM     10  CA  PRO A   6       3.155   5.229  17.184  0.00  0.00    +0.152 C 
ATOM     11  CB  PRO A   6       3.161   6.750  17.052  0.00  0.00    +0.031 C 
ATOM     12  CG  PRO A   6       1.796   7.067  16.521  0.00  0.00    +0.024 C 
ATOM     13  CD  PRO A   6       1.465   5.949  15.570  0.00  0.00    +0.094 C 
ATOM     14  O   PRO A   5       1.508   3.463  14.439  0.00  0.00    -0.273 OA
BRANCH  10  15
ATOM     15  C   PRO A   6       2.769   4.825  18.610  0.00  0.00    +0.241 C 
ATOM     16  O   PRO A   6       3.394   5.277  19.558  0.00  0.00    -0.273 OA
ATOM     17  N   LEU A   7       1.790   3.938  18.754  0.00  0.00    -0.297 N 
ATOM     18  H   LEU A   7       1.233   3.672  17.917  0.00  0.00    +0.150 HD
BRANCH  17  19
ATOM     19  CA  LEU A   7       1.459   3.315  20.047  0.00  0.00    +0.149 C 
BRANCH  19  20
ATOM     20  C   LEU A   7       1.075   4.325  21.122  0.00  0.00    +0.241 C 
ATOM     21  O   LEU A   7       1.250   4.085  22.327  0.00  0.00    -0.273 OA
ATOM     22  N   LEU A   8       0.493   5.435  20.692  0.00  0.00    -0.298 N 
ATOM     23  H   LEU A   8       0.232   5.523  19.689  0.00  0.00    +0.150 HD
BRANCH  22  24
ATOM     24  CA  LEU A   8       0.217   6.523  21.600  0.00  0.00    +0.137 C 
BRANCH  24  25
ATOM     25  C   LEU A   8      -0.843   6.131  22.630  0.00  0.00    +0.227 C 
ATOM     26  O   LEU A   8      -1.831   5.447  22.349  0.00  0.00    -0.286 OA
ENDBRANCH  24  25
BRANCH  24  27
ATOM     27  CB  LEU A   8      -0.212   7.764  20.796  0.00  0.00    +0.028 C 
BRANCH  27  28
ATOM     28  CG  LEU A   8       0.887   8.333  19.892  0.00  0.00    +0.002 C 
ATOM     29  CD2 LEU A   8       2.010   8.970  20.684  0.00  0.00    +0.000 C 
ATOM     30  CD1 LEU A   8       0.219   9.306  18.934  0.00  0.00    +0.000 C 
ENDBRANCH  27  28
ENDBRANCH  24  27
ENDBRANCH  22  24
ENDBRANCH  19  20
BRANCH  19  31
ATOM     31  CB  LEU A   7       2.607   2.435  20.536  0.00  0.00    +0.029 C 
BRANCH  31  32
ATOM     32  CG  LEU A   7       2.955   1.246  19.625  0.00  0.00    +0.002 C 
ATOM     33  CD2 LEU A   7       4.262   0.585  20.067  0.00  0.00    +0.000 C 
ATOM     34  CD1 LEU A   7       1.838   0.190  19.599  0.00  0.00    +0.000 C 
ENDBRANCH  31  32
ENDBRANCH  19  31
ENDBRANCH  17  19
ENDBRANCH  10  15
ENDBRANCH   4   8
BRANCH   1  35
ATOM     35  CA  THR A   4       0.203  -0.019  16.055  0.00  0.00    +0.176 C 
BRANCH  35  38
ATOM     36  C   THR A   3      -1.033  -1.207  17.787  0.00  0.00    +0.243 C 
ATOM     37  O   THR A   3      -0.380  -2.238  17.655  0.00  0.00    -0.273 OA
ATOM     38  N   THR A   4      -0.884  -0.127  17.033  0.00  0.00    -0.295 N 
ATOM     39  H   THR A   4      -1.554   0.662  17.138  0.00  0.00    +0.150 HD
BRANCH  36  40
ATOM     40  CA  THR A   3      -2.052  -1.117  18.915  0.00  0.00    +0.176 C 
BRANCH  40  43
ATOM     41  C   LEU A   2      -2.343   1.130  19.763  0.00  0.00    +0.241 C 
ATOM     42  O   LEU A   2      -1.334   0.986  20.491  0.00  0.00    -0.273 OA
ATOM     43  N   THR A   3      -2.740   0.179  18.946  0.00  0.00    -0.295 N 
ATOM     44  H   THR A   3      -3.550   0.347  18.315  0.00  0.00    +0.150 HD
BRANCH  41  45
ATOM     45  CA  LEU A   2      -3.080   2.445  19.725  0.00  0.00    +0.149 C 
BRANCH  45  48
ATOM     46  C   SER A   1      -3.567   2.376  22.083  0.00  0.00    +0.241 C 
ATOM     47  O   SER A   1      -4.309   1.410  21.931  0.00  0.00    -0.274 OA
ATOM     48  N   LEU A   2      -3.034   3.028  21.056  0.00  0.00    -0.297 N 
ATOM     49  H   LEU A   2      -2.584   3.954  21.204  0.00  0.00    +0.150 HD
BRANCH  46  50
ATOM     50  CA  SER A   1      -3.123   2.803  23.466  0.00  0.00    +0.174 C 
BRANCH  50  51
ATOM     51  N   SER A   1      -3.892   2.167  24.536  0.00  0.00    -0.236 NA
ATOM     52  H   SER A   1      -4.114   1.153  24.467  0.00  0.00    +0.142 HD
ENDBRANCH  50  51
BRANCH  50  53
ATOM     53  CB  SER A   1      -1.642   2.433  23.602  0.00  0.00    +0.163 C 
BRANCH  53  54
ATOM     54  OG  SER A   1      -1.368   1.065  23.263  0.00  0.00    -0.380 OA
ATOM     55  H   SER A   1      -1.633   0.899  22.324  0.00  0.00    +0.211 HD
ENDBRANCH  53  54
ENDBRANCH  50  53
ENDBRANCH  46  50
ENDBRANCH  45  48
BRANCH  45  56
ATOM     56  CB  LEU A   2      -2.368   3.335  18.707  0.00  0.00    +0.029 C 
BRANCH  56  57
ATOM     57  CG  LEU A   2      -2.766   4.808  18.700  0.00  0.00    +0.002 C 
ATOM     58  CD2 LEU A   2      -4.259   4.952  18.358  0.00  0.00    +0.000 C 
ATOM     59  CD1 LEU A   2      -1.937   5.625  17.710  0.00  0.00    +0.000 C 
ENDBRANCH  56  57
ENDBRANCH  45  56
ENDBRANCH  41  45
ENDBRANCH  40  43
BRANCH  40  60
ATOM     60  CB  THR A   3      -3.002  -2.295  18.781  0.00  0.00    +0.137 C 
ATOM     61  CG2 THR A   3      -4.112  -2.288  19.875  0.00  0.00    +0.034 C 
BRANCH  60  62
ATOM     62  OG1 THR A   3      -3.617  -2.243  17.485  0.00  0.00    -0.382 OA
ATOM     63  HG1 THR A   3      -4.239  -3.007  17.385  0.00  0.00    +0.210 HD
ENDBRANCH  60  62
ENDBRANCH  40  60
ENDBRANCH  36  40
ENDBRANCH  35  38
BRANCH  35  64
ATOM     64  CB  THR A   4      -0.344   0.135  14.630  0.00  0.00    +0.137 C 
ATOM     65  CG2 THR A   4      -1.210  -1.018  14.273  0.00  0.00    +0.034 C 
BRANCH  64  66
ATOM     66  OG1 THR A   4      -1.123   1.323  14.549  0.00  0.00    -0.382 OA
ATOM     67  HG1 THR A   4      -0.557   2.104  14.773  0.00  0.00    +0.210 HD
ENDBRANCH  64  66
ENDBRANCH  35  64
ENDBRANCH   1  35
TORSDOF 26
REMARK  Name = ../refined-set-2016/3p58/3p58_pocket.pdb
REMARK  153 active torsions:
REMARK  status: ('A' for Active; 'I' for Inactive)
REMARK    1  A    between atoms: _1  and  _3
REMARK    2  A    between atoms: _3  and  _4
REMARK    3  A    between atoms: _3  and  _6
REMARK    4  A    between atoms: _6  and  _7
REMARK    5  A    between atoms: _17  and  _19
REMARK    6  A    between atoms: _19  and  _20
REMARK    7  A    between atoms: _19  and  _22
REMARK    8  A    between atoms: _22  and  _23
REMARK    9  A    between atoms: _28  and  _29
REMARK   10  A    between atoms: _31  and  _33
REMARK   11  A    between atoms: _33  and  _34
REMARK   12  A    between atoms: _33  and  _36
REMARK   13  A    between atoms: _36  and  _37
REMARK   14  A    between atoms: _39  and  _41
REMARK   15  A    between atoms: _41  and  _42
REMARK   16  A    between atoms: _41  and  _44
REMARK   17  A    between atoms: _44  and  _45
REMARK   18  A    between atoms: _48  and  _50
REMARK   19  A    between atoms: _50  and  _51
REMARK   20  A    between atoms: _50  and  _53
REMARK   21  A    between atoms: _53  and  _54
REMARK   22  A    between atoms: _59  and  _61
REMARK   23  A    between atoms: _61  and  _62
REMARK   24  A    between atoms: _64  and  _66
REMARK   25  A    between atoms: _66  and  _67
REMARK   26  A    between atoms: _66  and  _69
REMARK   27  A    between atoms: _69  and  _70
REMARK   28  A    between atoms: _75  and  _77
REMARK   29  A    between atoms: _77  and  _78
REMARK   30  A    between atoms: _81  and  _83
REMARK   31  A    between atoms: _83  and  _84
REMARK   32  A    between atoms: _83  and  _86
REMARK   33  A    between atoms: _86  and  _87
REMARK   34  A    between atoms: _93  and  _95
REMARK   35  A    between atoms: _95  and  _96
REMARK   36  A    between atoms: _95  and  _98
REMARK   37  A    between atoms: _98  and  _99
REMARK   38  A    between atoms: _104  and  _106
REMARK   39  A    between atoms: _106  and  _107
REMARK   40  A    between atoms: _106  and  _109
REMARK   41  A    between atoms: _112  and  _114
REMARK   42  A    between atoms: _114  and  _115
REMARK   43  A    between atoms: _114  and  _117
REMARK   44  A    between atoms: _117  and  _118
REMARK   45  A    between atoms: _121  and  _123
REMARK   46  A    between atoms: _123  and  _124
REMARK   47  A    between atoms: _123  and  _126
REMARK   48  A    between atoms: _126  and  _127
REMARK   49  A    between atoms: _127  and  _128
REMARK   50  A    between atoms: _133  and  _135
REMARK   51  A    between atoms: _135  and  _136
REMARK   52  A    between atoms: _135  and  _138
REMARK   53  A    between atoms: _138  and  _139
REMARK   54  A    between atoms: _145  and  _147
REMARK   55  A    between atoms: _158  and  _161
REMARK   56  A    between atoms: _161  and  _162
REMARK   57  A    between atoms: _170  and  _171
REMARK   58  A    between atoms: _179  and  _181
REMARK   59  A    between atoms: _181  and  _182
REMARK   60  A    between atoms: _181  and  _184
REMARK   61  A    between atoms: _184  and  _185
REMARK   62  A    between atoms: _185  and  _186
REMARK   63  A    between atoms: _189  and  _191
REMARK   64  A    between atoms: _191  and  _192
REMARK   65  A    between atoms: _191  and  _194
REMARK   66  A    between atoms: _194  and  _195
REMARK   67  A    between atoms: _195  and  _196
REMARK   68  A    between atoms: _199  and  _201
REMARK   69  A    between atoms: _201  and  _202
REMARK   70  A    between atoms: _201  and  _204
REMARK   71  A    between atoms: _204  and  _205
REMARK   72  A    between atoms: _208  and  _210
REMARK   73  A    between atoms: _210  and  _211
REMARK   74  A    between atoms: _210  and  _213
REMARK   75  A    between atoms: _213  and  _214
REMARK   76  A    between atoms: _215  and  ZN_425
REMARK   77  A    between atoms: _219  and  _221
REMARK   78  A    between atoms: _221  and  _222
REMARK   79  A    between atoms: _221  and  _224
REMARK   80  A    between atoms: _224  and  _225
REMARK   81  A    between atoms: _228  and  _230
REMARK   82  A    between atoms: _230  and  _231
REMARK   83  A    between atoms: _230  and  _233
REMARK   84  A    between atoms: _236  and  _238
REMARK   85  A    between atoms: _238  and  _239
REMARK   86  A    between atoms: _238  and  _241
REMARK   87  A    between atoms: _241  and  _242
REMARK   88  A    between atoms: _247  and  _249
REMARK   89  A    between atoms: _249  and  _250
REMARK   90  A    between atoms: _249  and  _252
REMARK   91  A    between atoms: _252  and  _253
REMARK   92  A    between atoms: _259  and  _261
REMARK   93  A    between atoms: _261  and  _262
REMARK   94  A    between atoms: _261  and  _264
REMARK   95  A    between atoms: _267  and  _269
REMARK   96  A    between atoms: _269  and  _270
REMARK   97  A    between atoms: _269  and  _272
REMARK   98  A    between atoms: _272  and  _273
REMARK   99  A    between atoms: _276  and  _278
REMARK  100  A    between atoms: _278  and  _279
REMARK  101  A    between atoms: _282  and  _284
REMARK  102  A    between atoms: _284  and  _285
REMARK  103  A    between atoms: _284  and  _287
REMARK  104  A    between atoms: _290  and  _292
REMARK  105  A    between atoms: _292  and  _293
REMARK  106  A    between atoms: _292  and  _295
REMARK  107  A    between atoms: _295  and  _296
REMARK  108  A    between atoms: _299  and  _301
REMARK  109  A    between atoms: _301  and  _302
REMARK  110  A    between atoms: _301  and  _304
REMARK  111  A    between atoms: _304  and  _305
REMARK  112  A    between atoms: _307  and  _309
REMARK  113  A    between atoms: _309  and  _310
REMARK  114  A    between atoms: _309  and  _312
REMARK  115  A    between atoms: _312  and  _313
REMARK  116  A    between atoms: _316  and  _318
REMARK  117  A    between atoms: _318  and  _319
REMARK  118  A    between atoms: _318  and  _321
REMARK  119  A    between atoms: _321  and  _322
REMARK  120  A    between atoms: _325  and  _327
REMARK  121  A    between atoms: _327  and  _328
REMARK  122  A    between atoms: _327  and  _330
REMARK  123  A    between atoms: _330  and  _331
REMARK  124  A    between atoms: _335  and  _336
REMARK  125  A    between atoms: _342  and  _343
REMARK  126  A    between atoms: _348  and  _350
REMARK  127  A    between atoms: _350  and  _351
REMARK  128  A    between atoms: _350  and  _353
REMARK  129  A    between atoms: _353  and  _354
REMARK  130  A    between atoms: _357  and  _359
REMARK  131  A    between atoms: _359  and  _360
REMARK  132  A    between atoms: _359  and  _362
REMARK  133  A    between atoms: _362  and  _363
REMARK  134  A    between atoms: _366  and  _368
REMARK  135  A    between atoms: _368  and  _369
REMARK  136  A    between atoms: _368  and  _371
REMARK  137  A    between atoms: _373  and  _375
REMARK  138  A    between atoms: _375  and  _376
REMARK  139  A    between atoms: _375  and  _378
REMARK  140  A    between atoms: _381  and  _383
REMARK  141  A    between atoms: _383  and  _384
REMARK  142  A    between atoms: _383  and  _386
REMARK  143  A    between atoms: _386  and  _387
REMARK  144  A    between atoms: _397  and  _399
REMARK  145  A    between atoms: _399  and  _400
REMARK  146  A    between atoms: _399  and  _402
REMARK  147  A    between atoms: _402  and  _403
REMARK  148  A    between atoms: _408  and  _410
REMARK  149  A    between atoms: _410  and  _411
REMARK  150  A    between atoms: _410  and  _413
REMARK  151  A    between atoms: _413  and  _414
REMARK  152  A    between atoms: _414  and  _415
REMARK  153  A    between atoms: _415  and  _416
REMARK                            x       y       z     vdW  Elec       q    Type
REMARK                         _______ _______ _______ _____ _____    ______ ____
ROOT
ATOM      1  C   CYS A   1      -5.988   7.504  23.888  0.00  0.00    +0.239 C 
ATOM      2  N   VAL A   2      -6.103   6.202  24.158  0.00  0.00    -0.298 N 
ATOM      3  H   VAL A   2      -5.313   5.698  24.609  0.00  0.00    +0.150 HD
ATOM      4  O   CYS A   1      -6.930   8.207  23.578  0.00  0.00    -0.274 OA
ENDROOT
BRANCH   1   5
ATOM      5  CA  CYS A   1      -4.612   8.116  23.989  0.00  0.00    +0.156 C 
BRANCH   5   6
ATOM      6  N   CYS A   1      -3.528   7.145  24.147  0.00  0.00    -0.237 NA
ATOM      7  H   CYS A   1      -3.448   6.372  23.456  0.00  0.00    +0.142 HD
ENDBRANCH   5   6
BRANCH   5   8
ATOM      8  CB  CYS A   1      -4.383   8.941  22.727  0.00  0.00    +0.095 C 
ATOM      9  SG  CYS A   1      -4.299   7.960  21.202  0.00  0.00    -0.080 S 
ENDBRANCH   5   8
ENDBRANCH   1   5
BRANCH   2  10
ATOM     10  CA  VAL A   2      -7.343   5.468  23.823  0.00  0.00    +0.137 C 
BRANCH  10  11
ATOM     11  CB  VAL A   2      -7.053   4.166  22.985  0.00  0.00    +0.026 C 
ATOM     12  CG2 VAL A   2      -8.370   3.464  22.622  0.00  0.00    +0.002 C 
ATOM     13  CG1 VAL A   2      -6.274   4.551  21.706  0.00  0.00    +0.002 C 
ENDBRANCH  10  11
BRANCH  10  14
ATOM     14  C   VAL A   2      -8.122   5.041  25.058  0.00  0.00    +0.227 C 
ATOM     15  O   VAL A   2      -7.577   4.346  25.907  0.00  0.00    -0.286 OA
ENDBRANCH  10  14
ENDBRANCH   2  10
TORSDOF 6
REMARK  Name = ../refined-set-2016/3p58/3p58_pocket.pdb
REMARK  153 active torsions:
REMARK  status: ('A' for Active; 'I' for Inactive)
REMARK    1  A    between atoms: _1  and  _3
REMARK    2  A    between atoms: _3  and  _4
REMARK    3  A    between atoms: _3  and  _6
REMARK    4  A    between atoms: _6  and  _7
REMARK    5  A    between atoms: _17  and  _19
REMARK    6  A    between atoms: _19  and  _20
REMARK    7  A    between atoms: _19  and  _22
REMARK    8  A    between atoms: _22  and  _23
REMARK    9  A    between atoms: _28  and  _29
REMARK   10  A    between atoms: _31  and  _33
REMARK   11  A    between atoms: _33  and  _34
REMARK   12  A    between atoms: _33  and  _36
REMARK   13  A    between atoms: _36  and  _37
REMARK   14  A    between atoms: _39  and  _41
REMARK   15  A    between atoms: _41  and  _42
REMARK   16  A    between atoms: _41  and  _44
REMARK   17  A    between atoms: _44  and  _45
REMARK   18  A    between atoms: _48  and  _50
REMARK   19  A    between atoms: _50  and  _51
REMARK   20  A    between atoms: _50  and  _53
REMARK   21  A    between atoms: _53  and  _54
REMARK   22  A    between atoms: _59  and  _61
REMARK   23  A    between atoms: _61  and  _62
REMARK   24  A    between atoms: _64  and  _66
REMARK   25  A    between atoms: _66  and  _67
REMARK   26  A    between atoms: _66  and  _69
REMARK   27  A    between atoms: _69  and  _70
REMARK   28  A    between atoms: _75  and  _77
REMARK   29  A    between atoms: _77  and  _78
REMARK   30  A    between atoms: _81  and  _83
REMARK   31  A    between atoms: _83  and  _84
REMARK   32  A    between atoms: _83  and  _86
REMARK   33  A    between atoms: _86  and  _87
REMARK   34  A    between atoms: _93  and  _95
REMARK   35  A    between atoms: _95  and  _96
REMARK   36  A    between atoms: _95  and  _98
REMARK   37  A    between atoms: _98  and  _99
REMARK   38  A    between atoms: _104  and  _106
REMARK   39  A    between atoms: _106  and  _107
REMARK   40  A    between atoms: _106  and  _109
REMARK   41  A    between atoms: _112  and  _114
REMARK   42  A    between atoms: _114  and  _115
REMARK   43  A    between atoms: _114  and  _117
REMARK   44  A    between atoms: _117  and  _118
REMARK   45  A    between atoms: _121  and  _123
REMARK   46  A    between atoms: _123  and  _124
REMARK   47  A    between atoms: _123  and  _126
REMARK   48  A    between atoms: _126  and  _127
REMARK   49  A    between atoms: _127  and  _128
REMARK   50  A    between atoms: _133  and  _135
REMARK   51  A    between atoms: _135  and  _136
REMARK   52  A    between atoms: _135  and  _138
REMARK   53  A    between atoms: _138  and  _139
REMARK   54  A    between atoms: _145  and  _147
REMARK   55  A    between atoms: _158  and  _161
REMARK   56  A    between atoms: _161  and  _162
REMARK   57  A    between atoms: _170  and  _171
REMARK   58  A    between atoms: _179  and  _181
REMARK   59  A    between atoms: _181  and  _182
REMARK   60  A    between atoms: _181  and  _184
REMARK   61  A    between atoms: _184  and  _185
REMARK   62  A    between atoms: _185  and  _186
REMARK   63  A    between atoms: _189  and  _191
REMARK   64  A    between atoms: _191  and  _192
REMARK   65  A    between atoms: _191  and  _194
REMARK   66  A    between atoms: _194  and  _195
REMARK   67  A    between atoms: _195  and  _196
REMARK   68  A    between atoms: _199  and  _201
REMARK   69  A    between atoms: _201  and  _202
REMARK   70  A    between atoms: _201  and  _204
REMARK   71  A    between atoms: _204  and  _205
REMARK   72  A    between atoms: _208  and  _210
REMARK   73  A    between atoms: _210  and  _211
REMARK   74  A    between atoms: _210  and  _213
REMARK   75  A    between atoms: _213  and  _214
REMARK   76  A    between atoms: _215  and  ZN_425
REMARK   77  A    between atoms: _219  and  _221
REMARK   78  A    between atoms: _221  and  _222
REMARK   79  A    between atoms: _221  and  _224
REMARK   80  A    between atoms: _224  and  _225
REMARK   81  A    between atoms: _228  and  _230
REMARK   82  A    between atoms: _230  and  _231
REMARK   83  A    between atoms: _230  and  _233
REMARK   84  A    between atoms: _236  and  _238
REMARK   85  A    between atoms: _238  and  _239
REMARK   86  A    between atoms: _238  and  _241
REMARK   87  A    between atoms: _241  and  _242
REMARK   88  A    between atoms: _247  and  _249
REMARK   89  A    between atoms: _249  and  _250
REMARK   90  A    between atoms: _249  and  _252
REMARK   91  A    between atoms: _252  and  _253
REMARK   92  A    between atoms: _259  and  _261
REMARK   93  A    between atoms: _261  and  _262
REMARK   94  A    between atoms: _261  and  _264
REMARK   95  A    between atoms: _267  and  _269
REMARK   96  A    between atoms: _269  and  _270
REMARK   97  A    between atoms: _269  and  _272
REMARK   98  A    between atoms: _272  and  _273
REMARK   99  A    between atoms: _276  and  _278
REMARK  100  A    between atoms: _278  and  _279
REMARK  101  A    between atoms: _282  and  _284
REMARK  102  A    between atoms: _284  and  _285
REMARK  103  A    between atoms: _284  and  _287
REMARK  104  A    between atoms: _290  and  _292
REMARK  105  A    between atoms: _292  and  _293
REMARK  106  A    between atoms: _292  and  _295
REMARK  107  A    between atoms: _295  and  _296
REMARK  108  A    between atoms: _299  and  _301
REMARK  109  A    between atoms: _301  and  _302
REMARK  110  A    between atoms: _301  and  _304
REMARK  111  A    between atoms: _304  and  _305
REMARK  112  A    between atoms: _307  and  _309
REMARK  113  A    between atoms: _309  and  _310
REMARK  114  A    between atoms: _309  and  _312
REMARK  115  A    between atoms: _312  and  _313
REMARK  116  A    between atoms: _316  and  _318
REMARK  117  A    between atoms: _318  and  _319
REMARK  118  A    between atoms: _318  and  _321
REMARK  119  A    between atoms: _321  and  _322
REMARK  120  A    between atoms: _325  and  _327
REMARK  121  A    between atoms: _327  and  _328
REMARK  122  A    between atoms: _327  and  _330
REMARK  123  A    between atoms: _330  and  _331
REMARK  124  A    between atoms: _335  and  _336
REMARK  125  A    between atoms: _342  and  _343
REMARK  126  A    between atoms: _348  and  _350
REMARK  127  A    between atoms: _350  and  _351
REMARK  128  A    between atoms: _350  and  _353
REMARK  129  A    between atoms: _353  and  _354
REMARK  130  A    between atoms: _357  and  _359
REMARK  131  A    between atoms: _359  and  _360
REMARK  132  A    between atoms: _359  and  _362
REMARK  133  A    between atoms: _362  and  _363
REMARK  134  A    between atoms: _366  and  _368
REMARK  135  A    between atoms: _368  and  _369
REMARK  136  A    between atoms: _368  and  _371
REMARK  137  A    between atoms: _373  and  _375
REMARK  138  A    between atoms: _375  and  _376
REMARK  139  A    between atoms: _375  and  _378
REMARK  140  A    between atoms: _381  and  _383
REMARK  141  A    between atoms: _383  and  _384
REMARK  142  A    between atoms: _383  and  _386
REMARK  143  A    between atoms: _386  and  _387
REMARK  144  A    between atoms: _397  and  _399
REMARK  145  A    between atoms: _399  and  _400
REMARK  146  A    between atoms: _399  and  _402
REMARK  147  A    between atoms: _402  and  _403
REMARK  148  A    between atoms: _408  and  _410
REMARK  149  A    between atoms: _410  and  _411
REMARK  150  A    between atoms: _410  and  _413
REMARK  151  A    between atoms: _413  and  _414
REMARK  152  A    between atoms: _414  and  _415
REMARK  153  A    between atoms: _415  and  _416
REMARK                            x       y       z     vdW  Elec       q    Type
REMARK                         _______ _______ _______ _____ _____    ______ ____
ROOT
ATOM      1  CG  TRP A   1      -8.808   0.039  24.145  0.00  0.00    -0.002 A 
ATOM      2  CD1 TRP A   1      -7.568   0.569  24.363  0.00  0.00    +0.068 A 
ATOM      3  NE1 TRP A   1      -6.850   0.564  23.189  0.00  0.00    -0.352 N 
ATOM      4  HE1 TRP A   1      -5.887   0.938  23.070  0.00  0.00    +0.166 HD
ATOM      5  CE2 TRP A   1      -7.606  -0.012  22.202  0.00  0.00    +0.056 A 
ATOM      6  CZ2 TRP A   1      -7.322  -0.261  20.878  0.00  0.00    +0.017 A 
ATOM      7  CH2 TRP A   1      -8.308  -0.849  20.118  0.00  0.00    +0.001 A 
ATOM      8  CZ3 TRP A   1      -9.542  -1.161  20.654  0.00  0.00    +0.000 A 
ATOM      9  CE3 TRP A   1      -9.821  -0.924  21.960  0.00  0.00    +0.001 A 
ATOM     10  CD2 TRP A   1      -8.841  -0.354  22.772  0.00  0.00    +0.013 A 
ENDROOT
BRANCH   1  11
ATOM     11  CB  TRP A   1      -9.946  -0.070  25.123  0.00  0.00    +0.053 C 
BRANCH  11  12
ATOM     12  CA  TRP A   1     -10.958   1.089  24.910  0.00  0.00    +0.137 C 
BRANCH  12  13
ATOM     13  N   TRP A   1     -10.515   2.308  25.590  0.00  0.00    -0.239 NA
ATOM     14  H   TRP A   1      -9.899   2.221  26.424  0.00  0.00    +0.142 HD
ENDBRANCH  12  13
BRANCH  12  15
ATOM     15  C   TRP A   1     -12.304   0.676  25.410  0.00  0.00    +0.224 C 
ATOM     16  O   TRP A   1     -12.532   0.629  26.601  0.00  0.00    -0.287 OA
ENDBRANCH  12  15
ENDBRANCH  11  12
ENDBRANCH   1  11
TORSDOF 4
REMARK  Name = ../refined-set-2016/3p58/3p58_pocket.pdb
REMARK  153 active torsions:
REMARK  status: ('A' for Active; 'I' for Inactive)
REMARK    1  A    between atoms: _1  and  _3
REMARK    2  A    between atoms: _3  and  _4
REMARK    3  A    between atoms: _3  and  _6
REMARK    4  A    between atoms: _6  and  _7
REMARK    5  A    between atoms: _17  and  _19
REMARK    6  A    between atoms: _19  and  _20
REMARK    7  A    between atoms: _19  and  _22
REMARK    8  A    between atoms: _22  and  _23
REMARK    9  A    between atoms: _28  and  _29
REMARK   10  A    between atoms: _31  and  _33
REMARK   11  A    between atoms: _33  and  _34
REMARK   12  A    between atoms: _33  and  _36
REMARK   13  A    between atoms: _36  and  _37
REMARK   14  A    between atoms: _39  and  _41
REMARK   15  A    between atoms: _41  and  _42
REMARK   16  A    between atoms: _41  and  _44
REMARK   17  A    between atoms: _44  and  _45
REMARK   18  A    between atoms: _48  and  _50
REMARK   19  A    between atoms: _50  and  _51
REMARK   20  A    between atoms: _50  and  _53
REMARK   21  A    between atoms: _53  and  _54
REMARK   22  A    between atoms: _59  and  _61
REMARK   23  A    between atoms: _61  and  _62
REMARK   24  A    between atoms: _64  and  _66
REMARK   25  A    between atoms: _66  and  _67
REMARK   26  A    between atoms: _66  and  _69
REMARK   27  A    between atoms: _69  and  _70
REMARK   28  A    between atoms: _75  and  _77
REMARK   29  A    between atoms: _77  and  _78
REMARK   30  A    between atoms: _81  and  _83
REMARK   31  A    between atoms: _83  and  _84
REMARK   32  A    between atoms: _83  and  _86
REMARK   33  A    between atoms: _86  and  _87
REMARK   34  A    between atoms: _93  and  _95
REMARK   35  A    between atoms: _95  and  _96
REMARK   36  A    between atoms: _95  and  _98
REMARK   37  A    between atoms: _98  and  _99
REMARK   38  A    between atoms: _104  and  _106
REMARK   39  A    between atoms: _106  and  _107
REMARK   40  A    between atoms: _106  and  _109
REMARK   41  A    between atoms: _112  and  _114
REMARK   42  A    between atoms: _114  and  _115
REMARK   43  A    between atoms: _114  and  _117
REMARK   44  A    between atoms: _117  and  _118
REMARK   45  A    between atoms: _121  and  _123
REMARK   46  A    between atoms: _123  and  _124
REMARK   47  A    between atoms: _123  and  _126
REMARK   48  A    between atoms: _126  and  _127
REMARK   49  A    between atoms: _127  and  _128
REMARK   50  A    between atoms: _133  and  _135
REMARK   51  A    between atoms: _135  and  _136
REMARK   52  A    between atoms: _135  and  _138
REMARK   53  A    between atoms: _138  and  _139
REMARK   54  A    between atoms: _145  and  _147
REMARK   55  A    between atoms: _158  and  _161
REMARK   56  A    between atoms: _161  and  _162
REMARK   57  A    between atoms: _170  and  _171
REMARK   58  A    between atoms: _179  and  _181
REMARK   59  A    between atoms: _181  and  _182
REMARK   60  A    between atoms: _181  and  _184
REMARK   61  A    between atoms: _184  and  _185
REMARK   62  A    between atoms: _185  and  _186
REMARK   63  A    between atoms: _189  and  _191
REMARK   64  A    between atoms: _191  and  _192
REMARK   65  A    between atoms: _191  and  _194
REMARK   66  A    between atoms: _194  and  _195
REMARK   67  A    between atoms: _195  and  _196
REMARK   68  A    between atoms: _199  and  _201
REMARK   69  A    between atoms: _201  and  _202
REMARK   70  A    between atoms: _201  and  _204
REMARK   71  A    between atoms: _204  and  _205
REMARK   72  A    between atoms: _208  and  _210
REMARK   73  A    between atoms: _210  and  _211
REMARK   74  A    between atoms: _210  and  _213
REMARK   75  A    between atoms: _213  and  _214
REMARK   76  A    between atoms: _215  and  ZN_425
REMARK   77  A    between atoms: _219  and  _221
REMARK   78  A    between atoms: _221  and  _222
REMARK   79  A    between atoms: _221  and  _224
REMARK   80  A    between atoms: _224  and  _225
REMARK   81  A    between atoms: _228  and  _230
REMARK   82  A    between atoms: _230  and  _231
REMARK   83  A    between atoms: _230  and  _233
REMARK   84  A    between atoms: _236  and  _238
REMARK   85  A    between atoms: _238  and  _239
REMARK   86  A    between atoms: _238  and  _241
REMARK   87  A    between atoms: _241  and  _242
REMARK   88  A    between atoms: _247  and  _249
REMARK   89  A    between atoms: _249  and  _250
REMARK   90  A    between atoms: _249  and  _252
REMARK   91  A    between atoms: _252  and  _253
REMARK   92  A    between atoms: _259  and  _261
REMARK   93  A    between atoms: _261  and  _262
REMARK   94  A    between atoms: _261  and  _264
REMARK   95  A    between atoms: _267  and  _269
REMARK   96  A    between atoms: _269  and  _270
REMARK   97  A    between atoms: _269  and  _272
REMARK   98  A    between atoms: _272  and  _273
REMARK   99  A    between atoms: _276  and  _278
REMARK  100  A    between atoms: _278  and  _279
REMARK  101  A    between atoms: _282  and  _284
REMARK  102  A    between atoms: _284  and  _285
REMARK  103  A    between atoms: _284  and  _287
REMARK  104  A    between atoms: _290  and  _292
REMARK  105  A    between atoms: _292  and  _293
REMARK  106  A    between atoms: _292  and  _295
REMARK  107  A    between atoms: _295  and  _296
REMARK  108  A    between atoms: _299  and  _301
REMARK  109  A    between atoms: _301  and  _302
REMARK  110  A    between atoms: _301  and  _304
REMARK  111  A    between atoms: _304  and  _305
REMARK  112  A    between atoms: _307  and  _309
REMARK  113  A    between atoms: _309  and  _310
REMARK  114  A    between atoms: _309  and  _312
REMARK  115  A    between atoms: _312  and  _313
REMARK  116  A    between atoms: _316  and  _318
REMARK  117  A    between atoms: _318  and  _319
REMARK  118  A    between atoms: _318  and  _321
REMARK  119  A    between atoms: _321  and  _322
REMARK  120  A    between atoms: _325  and  _327
REMARK  121  A    between atoms: _327  and  _328
REMARK  122  A    between atoms: _327  and  _330
REMARK  123  A    between atoms: _330  and  _331
REMARK  124  A    between atoms: _335  and  _336
REMARK  125  A    between atoms: _342  and  _343
REMARK  126  A    between atoms: _348  and  _350
REMARK  127  A    between atoms: _350  and  _351
REMARK  128  A    between atoms: _350  and  _353
REMARK  129  A    between atoms: _353  and  _354
REMARK  130  A    between atoms: _357  and  _359
REMARK  131  A    between atoms: _359  and  _360
REMARK  132  A    between atoms: _359  and  _362
REMARK  133  A    between atoms: _362  and  _363
REMARK  134  A    between atoms: _366  and  _368
REMARK  135  A    between atoms: _368  and  _369
REMARK  136  A    between atoms: _368  and  _371
REMARK  137  A    between atoms: _373  and  _375
REMARK  138  A    between atoms: _375  and  _376
REMARK  139  A    between atoms: _375  and  _378
REMARK  140  A    between atoms: _381  and  _383
REMARK  141  A    between atoms: _383  and  _384
REMARK  142  A    between atoms: _383  and  _386
REMARK  143  A    between atoms: _386  and  _387
REMARK  144  A    between atoms: _397  and  _399
REMARK  145  A    between atoms: _399  and  _400
REMARK  146  A    between atoms: _399  and  _402
REMARK  147  A    between atoms: _402  and  _403
REMARK  148  A    between atoms: _408  and  _410
REMARK  149  A    between atoms: _410  and  _411
REMARK  150  A    between atoms: _410  and  _413
REMARK  151  A    between atoms: _413  and  _414
REMARK  152  A    between atoms: _414  and  _415
REMARK  153  A    between atoms: _415  and  _416
REMARK                            x       y       z     vdW  Elec       q    Type
REMARK                         _______ _______ _______ _____ _____    ______ ____
ROOT
ATOM      1  CB  ASN A   1      -1.948  -7.118  10.420  0.00  0.00    +0.110 C 
ENDROOT
BRANCH   1   2
ATOM      2  CG  ASN A   1      -3.449  -7.285  10.198  0.00  0.00    +0.221 C 
ATOM      3  OD1 ASN A   1      -4.095  -8.158  10.769  0.00  0.00    -0.275 OA
ATOM      4  ND2 ASN A   1      -4.020  -6.397   9.391  0.00  0.00    -0.329 N 
ATOM      5 HD21 ASN A   1      -5.046  -6.428   9.227  0.00  0.00    +0.145 HD
ATOM      6 HD22 ASN A   1      -3.440  -5.671   8.924  0.00  0.00    +0.145 HD
ENDBRANCH   1   2
BRANCH   1   7
ATOM      7  CA  ASN A   1      -1.403  -8.002  11.555  0.00  0.00    +0.142 C 
BRANCH   7   8
ATOM      8  N   ASN A   1      -1.698  -9.402  11.318  0.00  0.00    -0.239 NA
ATOM      9  H   ASN A   1      -2.628  -9.663  10.932  0.00  0.00    +0.142 HD
ENDBRANCH   7   8
BRANCH   7  10
ATOM     10  C   ASN A   1      -1.944  -7.582  12.907  0.00  0.00    +0.225 C 
ATOM     11  O   ASN A   1      -2.630  -6.554  13.042  0.00  0.00    -0.287 OA
ENDBRANCH   7  10
ENDBRANCH   1   7
TORSDOF 4
REMARK  Name = ../refined-set-2016/3p58/3p58_pocket.pdb
REMARK  153 active torsions:
REMARK  status: ('A' for Active; 'I' for Inactive)
REMARK    1  A    between atoms: _1  and  _3
REMARK    2  A    between atoms: _3  and  _4
REMARK    3  A    between atoms: _3  and  _6
REMARK    4  A    between atoms: _6  and  _7
REMARK    5  A    between atoms: _17  and  _19
REMARK    6  A    between atoms: _19  and  _20
REMARK    7  A    between atoms: _19  and  _22
REMARK    8  A    between atoms: _22  and  _23
REMARK    9  A    between atoms: _28  and  _29
REMARK   10  A    between atoms: _31  and  _33
REMARK   11  A    between atoms: _33  and  _34
REMARK   12  A    between atoms: _33  and  _36
REMARK   13  A    between atoms: _36  and  _37
REMARK   14  A    between atoms: _39  and  _41
REMARK   15  A    between atoms: _41  and  _42
REMARK   16  A    between atoms: _41  and  _44
REMARK   17  A    between atoms: _44  and  _45
REMARK   18  A    between atoms: _48  and  _50
REMARK   19  A    between atoms: _50  and  _51
REMARK   20  A    between atoms: _50  and  _53
REMARK   21  A    between atoms: _53  and  _54
REMARK   22  A    between atoms: _59  and  _61
REMARK   23  A    between atoms: _61  and  _62
REMARK   24  A    between atoms: _64  and  _66
REMARK   25  A    between atoms: _66  and  _67
REMARK   26  A    between atoms: _66  and  _69
REMARK   27  A    between atoms: _69  and  _70
REMARK   28  A    between atoms: _75  and  _77
REMARK   29  A    between atoms: _77  and  _78
REMARK   30  A    between atoms: _81  and  _83
REMARK   31  A    between atoms: _83  and  _84
REMARK   32  A    between atoms: _83  and  _86
REMARK   33  A    between atoms: _86  and  _87
REMARK   34  A    between atoms: _93  and  _95
REMARK   35  A    between atoms: _95  and  _96
REMARK   36  A    between atoms: _95  and  _98
REMARK   37  A    between atoms: _98  and  _99
REMARK   38  A    between atoms: _104  and  _106
REMARK   39  A    between atoms: _106  and  _107
REMARK   40  A    between atoms: _106  and  _109
REMARK   41  A    between atoms: _112  and  _114
REMARK   42  A    between atoms: _114  and  _115
REMARK   43  A    between atoms: _114  and  _117
REMARK   44  A    between atoms: _117  and  _118
REMARK   45  A    between atoms: _121  and  _123
REMARK   46  A    between atoms: _123  and  _124
REMARK   47  A    between atoms: _123  and  _126
REMARK   48  A    between atoms: _126  and  _127
REMARK   49  A    between atoms: _127  and  _128
REMARK   50  A    between atoms: _133  and  _135
REMARK   51  A    between atoms: _135  and  _136
REMARK   52  A    between atoms: _135  and  _138
REMARK   53  A    between atoms: _138  and  _139
REMARK   54  A    between atoms: _145  and  _147
REMARK   55  A    between atoms: _158  and  _161
REMARK   56  A    between atoms: _161  and  _162
REMARK   57  A    between atoms: _170  and  _171
REMARK   58  A    between atoms: _179  and  _181
REMARK   59  A    between atoms: _181  and  _182
REMARK   60  A    between atoms: _181  and  _184
REMARK   61  A    between atoms: _184  and  _185
REMARK   62  A    between atoms: _185  and  _186
REMARK   63  A    between atoms: _189  and  _191
REMARK   64  A    between atoms: _191  and  _192
REMARK   65  A    between atoms: _191  and  _194
REMARK   66  A    between atoms: _194  and  _195
REMARK   67  A    between atoms: _195  and  _196
REMARK   68  A    between atoms: _199  and  _201
REMARK   69  A    between atoms: _201  and  _202
REMARK   70  A    between atoms: _201  and  _204
REMARK   71  A    between atoms: _204  and  _205
REMARK   72  A    between atoms: _208  and  _210
REMARK   73  A    between atoms: _210  and  _211
REMARK   74  A    between atoms: _210  and  _213
REMARK   75  A    between atoms: _213  and  _214
REMARK   76  A    between atoms: _215  and  ZN_425
REMARK   77  A    between atoms: _219  and  _221
REMARK   78  A    between atoms: _221  and  _222
REMARK   79  A    between atoms: _221  and  _224
REMARK   80  A    between atoms: _224  and  _225
REMARK   81  A    between atoms: _228  and  _230
REMARK   82  A    between atoms: _230  and  _231
REMARK   83  A    between atoms: _230  and  _233
REMARK   84  A    between atoms: _236  and  _238
REMARK   85  A    between atoms: _238  and  _239
REMARK   86  A    between atoms: _238  and  _241
REMARK   87  A    between atoms: _241  and  _242
REMARK   88  A    between atoms: _247  and  _249
REMARK   89  A    between atoms: _249  and  _250
REMARK   90  A    between atoms: _249  and  _252
REMARK   91  A    between atoms: _252  and  _253
REMARK   92  A    between atoms: _259  and  _261
REMARK   93  A    between atoms: _261  and  _262
REMARK   94  A    between atoms: _261  and  _264
REMARK   95  A    between atoms: _267  and  _269
REMARK   96  A    between atoms: _269  and  _270
REMARK   97  A    between atoms: _269  and  _272
REMARK   98  A    between atoms: _272  and  _273
REMARK   99  A    between atoms: _276  and  _278
REMARK  100  A    between atoms: _278  and  _279
REMARK  101  A    between atoms: _282  and  _284
REMARK  102  A    between atoms: _284  and  _285
REMARK  103  A    between atoms: _284  and  _287
REMARK  104  A    between atoms: _290  and  _292
REMARK  105  A    between atoms: _292  and  _293
REMARK  106  A    between atoms: _292  and  _295
REMARK  107  A    between atoms: _295  and  _296
REMARK  108  A    between atoms: _299  and  _301
REMARK  109  A    between atoms: _301  and  _302
REMARK  110  A    between atoms: _301  and  _304
REMARK  111  A    between atoms: _304  and  _305
REMARK  112  A    between atoms: _307  and  _309
REMARK  113  A    between atoms: _309  and  _310
REMARK  114  A    between atoms: _309  and  _312
REMARK  115  A    between atoms: _312  and  _313
REMARK  116  A    between atoms: _316  and  _318
REMARK  117  A    between atoms: _318  and  _319
REMARK  118  A    between atoms: _318  and  _321
REMARK  119  A    between atoms: _321  and  _322
REMARK  120  A    between atoms: _325  and  _327
REMARK  121  A    between atoms: _327  and  _328
REMARK  122  A    between atoms: _327  and  _330
REMARK  123  A    between atoms: _330  and  _331
REMARK  124  A    between atoms: _335  and  _336
REMARK  125  A    between atoms: _342  and  _343
REMARK  126  A    between atoms: _348  and  _350
REMARK  127  A    between atoms: _350  and  _351
REMARK  128  A    between atoms: _350  and  _353
REMARK  129  A    between atoms: _353  and  _354
REMARK  130  A    between atoms: _357  and  _359
REMARK  131  A    between atoms: _359  and  _360
REMARK  132  A    between atoms: _359  and  _362
REMARK  133  A    between atoms: _362  and  _363
REMARK  134  A    between atoms: _366  and  _368
REMARK  135  A    between atoms: _368  and  _369
REMARK  136  A    between atoms: _368  and  _371
REMARK  137  A    between atoms: _373  and  _375
REMARK  138  A    between atoms: _375  and  _376
REMARK  139  A    between atoms: _375  and  _378
REMARK  140  A    between atoms: _381  and  _383
REMARK  141  A    between atoms: _383  and  _384
REMARK  142  A    between atoms: _383  and  _386
REMARK  143  A    between atoms: _386  and  _387
REMARK  144  A    between atoms: _397  and  _399
REMARK  145  A    between atoms: _399  and  _400
REMARK  146  A    between atoms: _399  and  _402
REMARK  147  A    between atoms: _402  and  _403
REMARK  148  A    between atoms: _408  and  _410
REMARK  149  A    between atoms: _410  and  _411
REMARK  150  A    between atoms: _410  and  _413
REMARK  151  A    between atoms: _413  and  _414
REMARK  152  A    between atoms: _414  and  _415
REMARK  153  A    between atoms: _415  and  _416
REMARK                            x       y       z     vdW  Elec       q    Type
REMARK                         _______ _______ _______ _____ _____    ______ ____
ROOT
ATOM      1  NE  ARG A   1       2.300  -3.826  21.187  0.00  0.00    -0.265 N 
ATOM      2  CZ  ARG A   1       2.474  -2.806  22.022  0.00  0.00    +0.342 C 
ATOM      3  NH2 ARG A   1       3.706  -2.583  22.499  0.00  0.00    -0.292 N 
ATOM      4 HH21 ARG A   1       3.875  -1.793  23.154  0.00  0.00    +0.255 HD
ATOM      5 HH22 ARG A   1       4.493  -3.200  22.214  0.00  0.00    +0.255 HD
ATOM      6  NH1 ARG A   1       1.472  -2.011  22.361  0.00  0.00    -0.292 N 
ATOM      7 HH11 ARG A   1       1.635  -1.220  23.016  0.00  0.00    +0.255 HD
ATOM      8 HH12 ARG A   1       0.522  -2.177  21.972  0.00  0.00    +0.255 HD
ATOM      9  HE  ARG A   1       3.115  -4.447  21.009  0.00  0.00    +0.259 HD
ENDROOT
BRANCH   1  10
ATOM     10  CD  ARG A   1       1.033  -4.141  20.494  0.00  0.00    +0.174 C 
BRANCH  10  11
ATOM     11  CG  ARG A   1       1.151  -5.514  19.847  0.00  0.00    +0.045 C 
BRANCH  11  12
ATOM     12  CB  ARG A   1       0.060  -5.754  18.820  0.00  0.00    +0.029 C 
BRANCH  12  13
ATOM     13  CA  ARG A   1      -0.043  -7.205  18.325  0.00  0.00    +0.133 C 
BRANCH  13  14
ATOM     14  N   ARG A   1      -1.006  -7.272  17.236  0.00  0.00    -0.239 NA
ATOM     15  H   ARG A   1      -1.825  -6.631  17.257  0.00  0.00    +0.142 HD
ENDBRANCH  13  14
BRANCH  13  16
ATOM     16  C   ARG A   1      -0.544  -8.085  19.446  0.00  0.00    +0.224 C 
ATOM     17  O   ARG A   1      -1.741  -8.067  19.744  0.00  0.00    -0.287 OA
ENDBRANCH  13  16
ENDBRANCH  12  13
ENDBRANCH  11  12
ENDBRANCH  10  11
ENDBRANCH   1  10
TORSDOF 6
REMARK  Name = ../refined-set-2016/3p58/3p58_pocket.pdb
REMARK  153 active torsions:
REMARK  status: ('A' for Active; 'I' for Inactive)
REMARK    1  A    between atoms: _1  and  _3
REMARK    2  A    between atoms: _3  and  _4
REMARK    3  A    between atoms: _3  and  _6
REMARK    4  A    between atoms: _6  and  _7
REMARK    5  A    between atoms: _17  and  _19
REMARK    6  A    between atoms: _19  and  _20
REMARK    7  A    between atoms: _19  and  _22
REMARK    8  A    between atoms: _22  and  _23
REMARK    9  A    between atoms: _28  and  _29
REMARK   10  A    between atoms: _31  and  _33
REMARK   11  A    between atoms: _33  and  _34
REMARK   12  A    between atoms: _33  and  _36
REMARK   13  A    between atoms: _36  and  _37
REMARK   14  A    between atoms: _39  and  _41
REMARK   15  A    between atoms: _41  and  _42
REMARK   16  A    between atoms: _41  and  _44
REMARK   17  A    between atoms: _44  and  _45
REMARK   18  A    between atoms: _48  and  _50
REMARK   19  A    between atoms: _50  and  _51
REMARK   20  A    between atoms: _50  and  _53
REMARK   21  A    between atoms: _53  and  _54
REMARK   22  A    between atoms: _59  and  _61
REMARK   23  A    between atoms: _61  and  _62
REMARK   24  A    between atoms: _64  and  _66
REMARK   25  A    between atoms: _66  and  _67
REMARK   26  A    between atoms: _66  and  _69
REMARK   27  A    between atoms: _69  and  _70
REMARK   28  A    between atoms: _75  and  _77
REMARK   29  A    between atoms: _77  and  _78
REMARK   30  A    between atoms: _81  and  _83
REMARK   31  A    between atoms: _83  and  _84
REMARK   32  A    between atoms: _83  and  _86
REMARK   33  A    between atoms: _86  and  _87
REMARK   34  A    between atoms: _93  and  _95
REMARK   35  A    between atoms: _95  and  _96
REMARK   36  A    between atoms: _95  and  _98
REMARK   37  A    between atoms: _98  and  _99
REMARK   38  A    between atoms: _104  and  _106
REMARK   39  A    between atoms: _106  and  _107
REMARK   40  A    between atoms: _106  and  _109
REMARK   41  A    between atoms: _112  and  _114
REMARK   42  A    between atoms: _114  and  _115
REMARK   43  A    between atoms: _114  and  _117
REMARK   44  A    between atoms: _117  and  _118
REMARK   45  A    between atoms: _121  and  _123
REMARK   46  A    between atoms: _123  and  _124
REMARK   47  A    between atoms: _123  and  _126
REMARK   48  A    between atoms: _126  and  _127
REMARK   49  A    between atoms: _127  and  _128
REMARK   50  A    between atoms: _133  and  _135
REMARK   51  A    between atoms: _135  and  _136
REMARK   52  A    between atoms: _135  and  _138
REMARK   53  A    between atoms: _138  and  _139
REMARK   54  A    between atoms: _145  and  _147
REMARK   55  A    between atoms: _158  and  _161
REMARK   56  A    between atoms: _161  and  _162
REMARK   57  A    between atoms: _170  and  _171
REMARK   58  A    between atoms: _179  and  _181
REMARK   59  A    between atoms: _181  and  _182
REMARK   60  A    between atoms: _181  and  _184
REMARK   61  A    between atoms: _184  and  _185
REMARK   62  A    between atoms: _185  and  _186
REMARK   63  A    between atoms: _189  and  _191
REMARK   64  A    between atoms: _191  and  _192
REMARK   65  A    between atoms: _191  and  _194
REMARK   66  A    between atoms: _194  and  _195
REMARK   67  A    between atoms: _195  and  _196
REMARK   68  A    between atoms: _199  and  _201
REMARK   69  A    between atoms: _201  and  _202
REMARK   70  A    between atoms: _201  and  _204
REMARK   71  A    between atoms: _204  and  _205
REMARK   72  A    between atoms: _208  and  _210
REMARK   73  A    between atoms: _210  and  _211
REMARK   74  A    between atoms: _210  and  _213
REMARK   75  A    between atoms: _213  and  _214
REMARK   76  A    between atoms: _215  and  ZN_425
REMARK   77  A    between atoms: _219  and  _221
REMARK   78  A    between atoms: _221  and  _222
REMARK   79  A    between atoms: _221  and  _224
REMARK   80  A    between atoms: _224  and  _225
REMARK   81  A    between atoms: _228  and  _230
REMARK   82  A    between atoms: _230  and  _231
REMARK   83  A    between atoms: _230  and  _233
REMARK   84  A    between atoms: _236  and  _238
REMARK   85  A    between atoms: _238  and  _239
REMARK   86  A    between atoms: _238  and  _241
REMARK   87  A    between atoms: _241  and  _242
REMARK   88  A    between atoms: _247  and  _249
REMARK   89  A    between atoms: _249  and  _250
REMARK   90  A    between atoms: _249  and  _252
REMARK   91  A    between atoms: _252  and  _253
REMARK   92  A    between atoms: _259  and  _261
REMARK   93  A    between atoms: _261  and  _262
REMARK   94  A    between atoms: _261  and  _264
REMARK   95  A    between atoms: _267  and  _269
REMARK   96  A    between atoms: _269  and  _270
REMARK   97  A    between atoms: _269  and  _272
REMARK   98  A    between atoms: _272  and  _273
REMARK   99  A    between atoms: _276  and  _278
REMARK  100  A    between atoms: _278  and  _279
REMARK  101  A    between atoms: _282  and  _284
REMARK  102  A    between atoms: _284  and  _285
REMARK  103  A    between atoms: _284  and  _287
REMARK  104  A    between atoms: _290  and  _292
REMARK  105  A    between atoms: _292  and  _293
REMARK  106  A    between atoms: _292  and  _295
REMARK  107  A    between atoms: _295  and  _296
REMARK  108  A    between atoms: _299  and  _301
REMARK  109  A    between atoms: _301  and  _302
REMARK  110  A    between atoms: _301  and  _304
REMARK  111  A    between atoms: _304  and  _305
REMARK  112  A    between atoms: _307  and  _309
REMARK  113  A    between atoms: _309  and  _310
REMARK  114  A    between atoms: _309  and  _312
REMARK  115  A    between atoms: _312  and  _313
REMARK  116  A    between atoms: _316  and  _318
REMARK  117  A    between atoms: _318  and  _319
REMARK  118  A    between atoms: _318  and  _321
REMARK  119  A    between atoms: _321  and  _322
REMARK  120  A    between atoms: _325  and  _327
REMARK  121  A    between atoms: _327  and  _328
REMARK  122  A    between atoms: _327  and  _330
REMARK  123  A    between atoms: _330  and  _331
REMARK  124  A    between atoms: _335  and  _336
REMARK  125  A    between atoms: _342  and  _343
REMARK  126  A    between atoms: _348  and  _350
REMARK  127  A    between atoms: _350  and  _351
REMARK  128  A    between atoms: _350  and  _353
REMARK  129  A    between atoms: _353  and  _354
REMARK  130  A    between atoms: _357  and  _359
REMARK  131  A    between atoms: _359  and  _360
REMARK  132  A    between atoms: _359  and  _362
REMARK  133  A    between atoms: _362  and  _363
REMARK  134  A    between atoms: _366  and  _368
REMARK  135  A    between atoms: _368  and  _369
REMARK  136  A    between atoms: _368  and  _371
REMARK  137  A    between atoms: _373  and  _375
REMARK  138  A    between atoms: _375  and  _376
REMARK  139  A    between atoms: _375  and  _378
REMARK  140  A    between atoms: _381  and  _383
REMARK  141  A    between atoms: _383  and  _384
REMARK  142  A    between atoms: _383  and  _386
REMARK  143  A    between atoms: _386  and  _387
REMARK  144  A    between atoms: _397  and  _399
REMARK  145  A    between atoms: _399  and  _400
REMARK  146  A    between atoms: _399  and  _402
REMARK  147  A    between atoms: _402  and  _403
REMARK  148  A    between atoms: _408  and  _410
REMARK  149  A    between atoms: _410  and  _411
REMARK  150  A    between atoms: _410  and  _413
REMARK  151  A    between atoms: _413  and  _414
REMARK  152  A    between atoms: _414  and  _415
REMARK  153  A    between atoms: _415  and  _416
REMARK                            x       y       z     vdW  Elec       q    Type
REMARK                         _______ _______ _______ _____ _____    ______ ____
ROOT
ATOM      1  O   HOH     1      -3.971   6.915  11.157  0.00  0.00    +0.000 OA
ENDROOT
TORSDOF 0
REMARK  Name = ../refined-set-2016/3p58/3p58_pocket.pdb
REMARK  153 active torsions:
REMARK  status: ('A' for Active; 'I' for Inactive)
REMARK    1  A    between atoms: _1  and  _3
REMARK    2  A    between atoms: _3  and  _4
REMARK    3  A    between atoms: _3  and  _6
REMARK    4  A    between atoms: _6  and  _7
REMARK    5  A    between atoms: _17  and  _19
REMARK    6  A    between atoms: _19  and  _20
REMARK    7  A    between atoms: _19  and  _22
REMARK    8  A    between atoms: _22  and  _23
REMARK    9  A    between atoms: _28  and  _29
REMARK   10  A    between atoms: _31  and  _33
REMARK   11  A    between atoms: _33  and  _34
REMARK   12  A    between atoms: _33  and  _36
REMARK   13  A    between atoms: _36  and  _37
REMARK   14  A    between atoms: _39  and  _41
REMARK   15  A    between atoms: _41  and  _42
REMARK   16  A    between atoms: _41  and  _44
REMARK   17  A    between atoms: _44  and  _45
REMARK   18  A    between atoms: _48  and  _50
REMARK   19  A    between atoms: _50  and  _51
REMARK   20  A    between atoms: _50  and  _53
REMARK   21  A    between atoms: _53  and  _54
REMARK   22  A    between atoms: _59  and  _61
REMARK   23  A    between atoms: _61  and  _62
REMARK   24  A    between atoms: _64  and  _66
REMARK   25  A    between atoms: _66  and  _67
REMARK   26  A    between atoms: _66  and  _69
REMARK   27  A    between atoms: _69  and  _70
REMARK   28  A    between atoms: _75  and  _77
REMARK   29  A    between atoms: _77  and  _78
REMARK   30  A    between atoms: _81  and  _83
REMARK   31  A    between atoms: _83  and  _84
REMARK   32  A    between atoms: _83  and  _86
REMARK   33  A    between atoms: _86  and  _87
REMARK   34  A    between atoms: _93  and  _95
REMARK   35  A    between atoms: _95  and  _96
REMARK   36  A    between atoms: _95  and  _98
REMARK   37  A    between atoms: _98  and  _99
REMARK   38  A    between atoms: _104  and  _106
REMARK   39  A    between atoms: _106  and  _107
REMARK   40  A    between atoms: _106  and  _109
REMARK   41  A    between atoms: _112  and  _114
REMARK   42  A    between atoms: _114  and  _115
REMARK   43  A    between atoms: _114  and  _117
REMARK   44  A    between atoms: _117  and  _118
REMARK   45  A    between atoms: _121  and  _123
REMARK   46  A    between atoms: _123  and  _124
REMARK   47  A    between atoms: _123  and  _126
REMARK   48  A    between atoms: _126  and  _127
REMARK   49  A    between atoms: _127  and  _128
REMARK   50  A    between atoms: _133  and  _135
REMARK   51  A    between atoms: _135  and  _136
REMARK   52  A    between atoms: _135  and  _138
REMARK   53  A    between atoms: _138  and  _139
REMARK   54  A    between atoms: _145  and  _147
REMARK   55  A    between atoms: _158  and  _161
REMARK   56  A    between atoms: _161  and  _162
REMARK   57  A    between atoms: _170  and  _171
REMARK   58  A    between atoms: _179  and  _181
REMARK   59  A    between atoms: _181  and  _182
REMARK   60  A    between atoms: _181  and  _184
REMARK   61  A    between atoms: _184  and  _185
REMARK   62  A    between atoms: _185  and  _186
REMARK   63  A    between atoms: _189  and  _191
REMARK   64  A    between atoms: _191  and  _192
REMARK   65  A    between atoms: _191  and  _194
REMARK   66  A    between atoms: _194  and  _195
REMARK   67  A    between atoms: _195  and  _196
REMARK   68  A    between atoms: _199  and  _201
REMARK   69  A    between atoms: _201  and  _202
REMARK   70  A    between atoms: _201  and  _204
REMARK   71  A    between atoms: _204  and  _205
REMARK   72  A    between atoms: _208  and  _210
REMARK   73  A    between atoms: _210  and  _211
REMARK   74  A    between atoms: _210  and  _213
REMARK   75  A    between atoms: _213  and  _214
REMARK   76  A    between atoms: _215  and  ZN_425
REMARK   77  A    between atoms: _219  and  _221
REMARK   78  A    between atoms: _221  and  _222
REMARK   79  A    between atoms: _221  and  _224
REMARK   80  A    between atoms: _224  and  _225
REMARK   81  A    between atoms: _228  and  _230
REMARK   82  A    between atoms: _230  and  _231
REMARK   83  A    between atoms: _230  and  _233
REMARK   84  A    between atoms: _236  and  _238
REMARK   85  A    between atoms: _238  and  _239
REMARK   86  A    between atoms: _238  and  _241
REMARK   87  A    between atoms: _241  and  _242
REMARK   88  A    between atoms: _247  and  _249
REMARK   89  A    between atoms: _249  and  _250
REMARK   90  A    between atoms: _249  and  _252
REMARK   91  A    between atoms: _252  and  _253
REMARK   92  A    between atoms: _259  and  _261
REMARK   93  A    between atoms: _261  and  _262
REMARK   94  A    between atoms: _261  and  _264
REMARK   95  A    between atoms: _267  and  _269
REMARK   96  A    between atoms: _269  and  _270
REMARK   97  A    between atoms: _269  and  _272
REMARK   98  A    between atoms: _272  and  _273
REMARK   99  A    between atoms: _276  and  _278
REMARK  100  A    between atoms: _278  and  _279
REMARK  101  A    between atoms: _282  and  _284
REMARK  102  A    between atoms: _284  and  _285
REMARK  103  A    between atoms: _284  and  _287
REMARK  104  A    between atoms: _290  and  _292
REMARK  105  A    between atoms: _292  and  _293
REMARK  106  A    between atoms: _292  and  _295
REMARK  107  A    between atoms: _295  and  _296
REMARK  108  A    between atoms: _299  and  _301
REMARK  109  A    between atoms: _301  and  _302
REMARK  110  A    between atoms: _301  and  _304
REMARK  111  A    between atoms: _304  and  _305
REMARK  112  A    between atoms: _307  and  _309
REMARK  113  A    between atoms: _309  and  _310
REMARK  114  A    between atoms: _309  and  _312
REMARK  115  A    between atoms: _312  and  _313
REMARK  116  A    between atoms: _316  and  _318
REMARK  117  A    between atoms: _318  and  _319
REMARK  118  A    between atoms: _318  and  _321
REMARK  119  A    between atoms: _321  and  _322
REMARK  120  A    between atoms: _325  and  _327
REMARK  121  A    between atoms: _327  and  _328
REMARK  122  A    between atoms: _327  and  _330
REMARK  123  A    between atoms: _330  and  _331
REMARK  124  A    between atoms: _335  and  _336
REMARK  125  A    between atoms: _342  and  _343
REMARK  126  A    between atoms: _348  and  _350
REMARK  127  A    between atoms: _350  and  _351
REMARK  128  A    between atoms: _350  and  _353
REMARK  129  A    between atoms: _353  and  _354
REMARK  130  A    between atoms: _357  and  _359
REMARK  131  A    between atoms: _359  and  _360
REMARK  132  A    between atoms: _359  and  _362
REMARK  133  A    between atoms: _362  and  _363
REMARK  134  A    between atoms: _366  and  _368
REMARK  135  A    between atoms: _368  and  _369
REMARK  136  A    between atoms: _368  and  _371
REMARK  137  A    between atoms: _373  and  _375
REMARK  138  A    between atoms: _375  and  _376
REMARK  139  A    between atoms: _375  and  _378
REMARK  140  A    between atoms: _381  and  _383
REMARK  141  A    between atoms: _383  and  _384
REMARK  142  A    between atoms: _383  and  _386
REMARK  143  A    between atoms: _386  and  _387
REMARK  144  A    between atoms: _397  and  _399
REMARK  145  A    between atoms: _399  and  _400
REMARK  146  A    between atoms: _399  and  _402
REMARK  147  A    between atoms: _402  and  _403
REMARK  148  A    between atoms: _408  and  _410
REMARK  149  A    between atoms: _410  and  _411
REMARK  150  A    between atoms: _410  and  _413
REMARK  151  A    between atoms: _413  and  _414
REMARK  152  A    between atoms: _414  and  _415
REMARK  153  A    between atoms: _415  and  _416
REMARK                            x       y       z     vdW  Elec       q    Type
REMARK                         _______ _______ _______ _____ _____    ______ ____
ROOT
ATOM      1  O   HOH     1      -3.869   7.137   5.898  0.00  0.00    +0.000 OA
ENDROOT
TORSDOF 0
REMARK  Name = ../refined-set-2016/3p58/3p58_pocket.pdb
REMARK  153 active torsions:
REMARK  status: ('A' for Active; 'I' for Inactive)
REMARK    1  A    between atoms: _1  and  _3
REMARK    2  A    between atoms: _3  and  _4
REMARK    3  A    between atoms: _3  and  _6
REMARK    4  A    between atoms: _6  and  _7
REMARK    5  A    between atoms: _17  and  _19
REMARK    6  A    between atoms: _19  and  _20
REMARK    7  A    between atoms: _19  and  _22
REMARK    8  A    between atoms: _22  and  _23
REMARK    9  A    between atoms: _28  and  _29
REMARK   10  A    between atoms: _31  and  _33
REMARK   11  A    between atoms: _33  and  _34
REMARK   12  A    between atoms: _33  and  _36
REMARK   13  A    between atoms: _36  and  _37
REMARK   14  A    between atoms: _39  and  _41
REMARK   15  A    between atoms: _41  and  _42
REMARK   16  A    between atoms: _41  and  _44
REMARK   17  A    between atoms: _44  and  _45
REMARK   18  A    between atoms: _48  and  _50
REMARK   19  A    between atoms: _50  and  _51
REMARK   20  A    between atoms: _50  and  _53
REMARK   21  A    between atoms: _53  and  _54
REMARK   22  A    between atoms: _59  and  _61
REMARK   23  A    between atoms: _61  and  _62
REMARK   24  A    between atoms: _64  and  _66
REMARK   25  A    between atoms: _66  and  _67
REMARK   26  A    between atoms: _66  and  _69
REMARK   27  A    between atoms: _69  and  _70
REMARK   28  A    between atoms: _75  and  _77
REMARK   29  A    between atoms: _77  and  _78
REMARK   30  A    between atoms: _81  and  _83
REMARK   31  A    between atoms: _83  and  _84
REMARK   32  A    between atoms: _83  and  _86
REMARK   33  A    between atoms: _86  and  _87
REMARK   34  A    between atoms: _93  and  _95
REMARK   35  A    between atoms: _95  and  _96
REMARK   36  A    between atoms: _95  and  _98
REMARK   37  A    between atoms: _98  and  _99
REMARK   38  A    between atoms: _104  and  _106
REMARK   39  A    between atoms: _106  and  _107
REMARK   40  A    between atoms: _106  and  _109
REMARK   41  A    between atoms: _112  and  _114
REMARK   42  A    between atoms: _114  and  _115
REMARK   43  A    between atoms: _114  and  _117
REMARK   44  A    between atoms: _117  and  _118
REMARK   45  A    between atoms: _121  and  _123
REMARK   46  A    between atoms: _123  and  _124
REMARK   47  A    between atoms: _123  and  _126
REMARK   48  A    between atoms: _126  and  _127
REMARK   49  A    between atoms: _127  and  _128
REMARK   50  A    between atoms: _133  and  _135
REMARK   51  A    between atoms: _135  and  _136
REMARK   52  A    between atoms: _135  and  _138
REMARK   53  A    between atoms: _138  and  _139
REMARK   54  A    between atoms: _145  and  _147
REMARK   55  A    between atoms: _158  and  _161
REMARK   56  A    between atoms: _161  and  _162
REMARK   57  A    between atoms: _170  and  _171
REMARK   58  A    between atoms: _179  and  _181
REMARK   59  A    between atoms: _181  and  _182
REMARK   60  A    between atoms: _181  and  _184
REMARK   61  A    between atoms: _184  and  _185
REMARK   62  A    between atoms: _185  and  _186
REMARK   63  A    between atoms: _189  and  _191
REMARK   64  A    between atoms: _191  and  _192
REMARK   65  A    between atoms: _191  and  _194
REMARK   66  A    between atoms: _194  and  _195
REMARK   67  A    between atoms: _195  and  _196
REMARK   68  A    between atoms: _199  and  _201
REMARK   69  A    between atoms: _201  and  _202
REMARK   70  A    between atoms: _201  and  _204
REMARK   71  A    between atoms: _204  and  _205
REMARK   72  A    between atoms: _208  and  _210
REMARK   73  A    between atoms: _210  and  _211
REMARK   74  A    between atoms: _210  and  _213
REMARK   75  A    between atoms: _213  and  _214
REMARK   76  A    between atoms: _215  and  ZN_425
REMARK   77  A    between atoms: _219  and  _221
REMARK   78  A    between atoms: _221  and  _222
REMARK   79  A    between atoms: _221  and  _224
REMARK   80  A    between atoms: _224  and  _225
REMARK   81  A    between atoms: _228  and  _230
REMARK   82  A    between atoms: _230  and  _231
REMARK   83  A    between atoms: _230  and  _233
REMARK   84  A    between atoms: _236  and  _238
REMARK   85  A    between atoms: _238  and  _239
REMARK   86  A    between atoms: _238  and  _241
REMARK   87  A    between atoms: _241  and  _242
REMARK   88  A    between atoms: _247  and  _249
REMARK   89  A    between atoms: _249  and  _250
REMARK   90  A    between atoms: _249  and  _252
REMARK   91  A    between atoms: _252  and  _253
REMARK   92  A    between atoms: _259  and  _261
REMARK   93  A    between atoms: _261  and  _262
REMARK   94  A    between atoms: _261  and  _264
REMARK   95  A    between atoms: _267  and  _269
REMARK   96  A    between atoms: _269  and  _270
REMARK   97  A    between atoms: _269  and  _272
REMARK   98  A    between atoms: _272  and  _273
REMARK   99  A    between atoms: _276  and  _278
REMARK  100  A    between atoms: _278  and  _279
REMARK  101  A    between atoms: _282  and  _284
REMARK  102  A    between atoms: _284  and  _285
REMARK  103  A    between atoms: _284  and  _287
REMARK  104  A    between atoms: _290  and  _292
REMARK  105  A    between atoms: _292  and  _293
REMARK  106  A    between atoms: _292  and  _295
REMARK  107  A    between atoms: _295  and  _296
REMARK  108  A    between atoms: _299  and  _301
REMARK  109  A    between atoms: _301  and  _302
REMARK  110  A    between atoms: _301  and  _304
REMARK  111  A    between atoms: _304  and  _305
REMARK  112  A    between atoms: _307  and  _309
REMARK  113  A    between atoms: _309  and  _310
REMARK  114  A    between atoms: _309  and  _312
REMARK  115  A    between atoms: _312  and  _313
REMARK  116  A    between atoms: _316  and  _318
REMARK  117  A    between atoms: _318  and  _319
REMARK  118  A    between atoms: _318  and  _321
REMARK  119  A    between atoms: _321  and  _322
REMARK  120  A    between atoms: _325  and  _327
REMARK  121  A    between atoms: _327  and  _328
REMARK  122  A    between atoms: _327  and  _330
REMARK  123  A    between atoms: _330  and  _331
REMARK  124  A    between atoms: _335  and  _336
REMARK  125  A    between atoms: _342  and  _343
REMARK  126  A    between atoms: _348  and  _350
REMARK  127  A    between atoms: _350  and  _351
REMARK  128  A    between atoms: _350  and  _353
REMARK  129  A    between atoms: _353  and  _354
REMARK  130  A    between atoms: _357  and  _359
REMARK  131  A    between atoms: _359  and  _360
REMARK  132  A    between atoms: _359  and  _362
REMARK  133  A    between atoms: _362  and  _363
REMARK  134  A    between atoms: _366  and  _368
REMARK  135  A    between atoms: _368  and  _369
REMARK  136  A    between atoms: _368  and  _371
REMARK  137  A    between atoms: _373  and  _375
REMARK  138  A    between atoms: _375  and  _376
REMARK  139  A    between atoms: _375  and  _378
REMARK  140  A    between atoms: _381  and  _383
REMARK  141  A    between atoms: _383  and  _384
REMARK  142  A    between atoms: _383  and  _386
REMARK  143  A    between atoms: _386  and  _387
REMARK  144  A    between atoms: _397  and  _399
REMARK  145  A    between atoms: _399  and  _400
REMARK  146  A    between atoms: _399  and  _402
REMARK  147  A    between atoms: _402  and  _403
REMARK  148  A    between atoms: _408  and  _410
REMARK  149  A    between atoms: _410  and  _411
REMARK  150  A    between atoms: _410  and  _413
REMARK  151  A    between atoms: _413  and  _414
REMARK  152  A    between atoms: _414  and  _415
REMARK  153  A    between atoms: _415  and  _416
REMARK                            x       y       z     vdW  Elec       q    Type
REMARK                         _______ _______ _______ _____ _____    ______ ____
ROOT
ATOM      1  O   HOH     1      -1.143  -4.113  15.739  0.00  0.00    +0.000 OA
ENDROOT
TORSDOF 0
REMARK  Name = ../refined-set-2016/3p58/3p58_pocket.pdb
REMARK  153 active torsions:
REMARK  status: ('A' for Active; 'I' for Inactive)
REMARK    1  A    between atoms: _1  and  _3
REMARK    2  A    between atoms: _3  and  _4
REMARK    3  A    between atoms: _3  and  _6
REMARK    4  A    between atoms: _6  and  _7
REMARK    5  A    between atoms: _17  and  _19
REMARK    6  A    between atoms: _19  and  _20
REMARK    7  A    between atoms: _19  and  _22
REMARK    8  A    between atoms: _22  and  _23
REMARK    9  A    between atoms: _28  and  _29
REMARK   10  A    between atoms: _31  and  _33
REMARK   11  A    between atoms: _33  and  _34
REMARK   12  A    between atoms: _33  and  _36
REMARK   13  A    between atoms: _36  and  _37
REMARK   14  A    between atoms: _39  and  _41
REMARK   15  A    between atoms: _41  and  _42
REMARK   16  A    between atoms: _41  and  _44
REMARK   17  A    between atoms: _44  and  _45
REMARK   18  A    between atoms: _48  and  _50
REMARK   19  A    between atoms: _50  and  _51
REMARK   20  A    between atoms: _50  and  _53
REMARK   21  A    between atoms: _53  and  _54
REMARK   22  A    between atoms: _59  and  _61
REMARK   23  A    between atoms: _61  and  _62
REMARK   24  A    between atoms: _64  and  _66
REMARK   25  A    between atoms: _66  and  _67
REMARK   26  A    between atoms: _66  and  _69
REMARK   27  A    between atoms: _69  and  _70
REMARK   28  A    between atoms: _75  and  _77
REMARK   29  A    between atoms: _77  and  _78
REMARK   30  A    between atoms: _81  and  _83
REMARK   31  A    between atoms: _83  and  _84
REMARK   32  A    between atoms: _83  and  _86
REMARK   33  A    between atoms: _86  and  _87
REMARK   34  A    between atoms: _93  and  _95
REMARK   35  A    between atoms: _95  and  _96
REMARK   36  A    between atoms: _95  and  _98
REMARK   37  A    between atoms: _98  and  _99
REMARK   38  A    between atoms: _104  and  _106
REMARK   39  A    between atoms: _106  and  _107
REMARK   40  A    between atoms: _106  and  _109
REMARK   41  A    between atoms: _112  and  _114
REMARK   42  A    between atoms: _114  and  _115
REMARK   43  A    between atoms: _114  and  _117
REMARK   44  A    between atoms: _117  and  _118
REMARK   45  A    between atoms: _121  and  _123
REMARK   46  A    between atoms: _123  and  _124
REMARK   47  A    between atoms: _123  and  _126
REMARK   48  A    between atoms: _126  and  _127
REMARK   49  A    between atoms: _127  and  _128
REMARK   50  A    between atoms: _133  and  _135
REMARK   51  A    between atoms: _135  and  _136
REMARK   52  A    between atoms: _135  and  _138
REMARK   53  A    between atoms: _138  and  _139
REMARK   54  A    between atoms: _145  and  _147
REMARK   55  A    between atoms: _158  and  _161
REMARK   56  A    between atoms: _161  and  _162
REMARK   57  A    between atoms: _170  and  _171
REMARK   58  A    between atoms: _179  and  _181
REMARK   59  A    between atoms: _181  and  _182
REMARK   60  A    between atoms: _181  and  _184
REMARK   61  A    between atoms: _184  and  _185
REMARK   62  A    between atoms: _185  and  _186
REMARK   63  A    between atoms: _189  and  _191
REMARK   64  A    between atoms: _191  and  _192
REMARK   65  A    between atoms: _191  and  _194
REMARK   66  A    between atoms: _194  and  _195
REMARK   67  A    between atoms: _195  and  _196
REMARK   68  A    between atoms: _199  and  _201
REMARK   69  A    between atoms: _201  and  _202
REMARK   70  A    between atoms: _201  and  _204
REMARK   71  A    between atoms: _204  and  _205
REMARK   72  A    between atoms: _208  and  _210
REMARK   73  A    between atoms: _210  and  _211
REMARK   74  A    between atoms: _210  and  _213
REMARK   75  A    between atoms: _213  and  _214
REMARK   76  A    between atoms: _215  and  ZN_425
REMARK   77  A    between atoms: _219  and  _221
REMARK   78  A    between atoms: _221  and  _222
REMARK   79  A    between atoms: _221  and  _224
REMARK   80  A    between atoms: _224  and  _225
REMARK   81  A    between atoms: _228  and  _230
REMARK   82  A    between atoms: _230  and  _231
REMARK   83  A    between atoms: _230  and  _233
REMARK   84  A    between atoms: _236  and  _238
REMARK   85  A    between atoms: _238  and  _239
REMARK   86  A    between atoms: _238  and  _241
REMARK   87  A    between atoms: _241  and  _242
REMARK   88  A    between atoms: _247  and  _249
REMARK   89  A    between atoms: _249  and  _250
REMARK   90  A    between atoms: _249  and  _252
REMARK   91  A    between atoms: _252  and  _253
REMARK   92  A    between atoms: _259  and  _261
REMARK   93  A    between atoms: _261  and  _262
REMARK   94  A    between atoms: _261  and  _264
REMARK   95  A    between atoms: _267  and  _269
REMARK   96  A    between atoms: _269  and  _270
REMARK   97  A    between atoms: _269  and  _272
REMARK   98  A    between atoms: _272  and  _273
REMARK   99  A    between atoms: _276  and  _278
REMARK  100  A    between atoms: _278  and  _279
REMARK  101  A    between atoms: _282  and  _284
REMARK  102  A    between atoms: _284  and  _285
REMARK  103  A    between atoms: _284  and  _287
REMARK  104  A    between atoms: _290  and  _292
REMARK  105  A    between atoms: _292  and  _293
REMARK  106  A    between atoms: _292  and  _295
REMARK  107  A    between atoms: _295  and  _296
REMARK  108  A    between atoms: _299  and  _301
REMARK  109  A    between atoms: _301  and  _302
REMARK  110  A    between atoms: _301  and  _304
REMARK  111  A    between atoms: _304  and  _305
REMARK  112  A    between atoms: _307  and  _309
REMARK  113  A    between atoms: _309  and  _310
REMARK  114  A    between atoms: _309  and  _312
REMARK  115  A    between atoms: _312  and  _313
REMARK  116  A    between atoms: _316  and  _318
REMARK  117  A    between atoms: _318  and  _319
REMARK  118  A    between atoms: _318  and  _321
REMARK  119  A    between atoms: _321  and  _322
REMARK  120  A    between atoms: _325  and  _327
REMARK  121  A    between atoms: _327  and  _328
REMARK  122  A    between atoms: _327  and  _330
REMARK  123  A    between atoms: _330  and  _331
REMARK  124  A    between atoms: _335  and  _336
REMARK  125  A    between atoms: _342  and  _343
REMARK  126  A    between atoms: _348  and  _350
REMARK  127  A    between atoms: _350  and  _351
REMARK  128  A    between atoms: _350  and  _353
REMARK  129  A    between atoms: _353  and  _354
REMARK  130  A    between atoms: _357  and  _359
REMARK  131  A    between atoms: _359  and  _360
REMARK  132  A    between atoms: _359  and  _362
REMARK  133  A    between atoms: _362  and  _363
REMARK  134  A    between atoms: _366  and  _368
REMARK  135  A    between atoms: _368  and  _369
REMARK  136  A    between atoms: _368  and  _371
REMARK  137  A    between atoms: _373  and  _375
REMARK  138  A    between atoms: _375  and  _376
REMARK  139  A    between atoms: _375  and  _378
REMARK  140  A    between atoms: _381  and  _383
REMARK  141  A    between atoms: _383  and  _384
REMARK  142  A    between atoms: _383  and  _386
REMARK  143  A    between atoms: _386  and  _387
REMARK  144  A    between atoms: _397  and  _399
REMARK  145  A    between atoms: _399  and  _400
REMARK  146  A    between atoms: _399  and  _402
REMARK  147  A    between atoms: _402  and  _403
REMARK  148  A    between atoms: _408  and  _410
REMARK  149  A    between atoms: _410  and  _411
REMARK  150  A    between atoms: _410  and  _413
REMARK  151  A    between atoms: _413  and  _414
REMARK  152  A    between atoms: _414  and  _415
REMARK  153  A    between atoms: _415  and  _416
REMARK                            x       y       z     vdW  Elec       q    Type
REMARK                         _______ _______ _______ _____ _____    ______ ____
ROOT
ATOM      1  O   HOH     1      -2.420  -3.132  11.609  0.00  0.00    +0.000 OA
ENDROOT
TORSDOF 0
REMARK  Name = ../refined-set-2016/3p58/3p58_pocket.pdb
REMARK  153 active torsions:
REMARK  status: ('A' for Active; 'I' for Inactive)
REMARK    1  A    between atoms: _1  and  _3
REMARK    2  A    between atoms: _3  and  _4
REMARK    3  A    between atoms: _3  and  _6
REMARK    4  A    between atoms: _6  and  _7
REMARK    5  A    between atoms: _17  and  _19
REMARK    6  A    between atoms: _19  and  _20
REMARK    7  A    between atoms: _19  and  _22
REMARK    8  A    between atoms: _22  and  _23
REMARK    9  A    between atoms: _28  and  _29
REMARK   10  A    between atoms: _31  and  _33
REMARK   11  A    between atoms: _33  and  _34
REMARK   12  A    between atoms: _33  and  _36
REMARK   13  A    between atoms: _36  and  _37
REMARK   14  A    between atoms: _39  and  _41
REMARK   15  A    between atoms: _41  and  _42
REMARK   16  A    between atoms: _41  and  _44
REMARK   17  A    between atoms: _44  and  _45
REMARK   18  A    between atoms: _48  and  _50
REMARK   19  A    between atoms: _50  and  _51
REMARK   20  A    between atoms: _50  and  _53
REMARK   21  A    between atoms: _53  and  _54
REMARK   22  A    between atoms: _59  and  _61
REMARK   23  A    between atoms: _61  and  _62
REMARK   24  A    between atoms: _64  and  _66
REMARK   25  A    between atoms: _66  and  _67
REMARK   26  A    between atoms: _66  and  _69
REMARK   27  A    between atoms: _69  and  _70
REMARK   28  A    between atoms: _75  and  _77
REMARK   29  A    between atoms: _77  and  _78
REMARK   30  A    between atoms: _81  and  _83
REMARK   31  A    between atoms: _83  and  _84
REMARK   32  A    between atoms: _83  and  _86
REMARK   33  A    between atoms: _86  and  _87
REMARK   34  A    between atoms: _93  and  _95
REMARK   35  A    between atoms: _95  and  _96
REMARK   36  A    between atoms: _95  and  _98
REMARK   37  A    between atoms: _98  and  _99
REMARK   38  A    between atoms: _104  and  _106
REMARK   39  A    between atoms: _106  and  _107
REMARK   40  A    between atoms: _106  and  _109
REMARK   41  A    between atoms: _112  and  _114
REMARK   42  A    between atoms: _114  and  _115
REMARK   43  A    between atoms: _114  and  _117
REMARK   44  A    between atoms: _117  and  _118
REMARK   45  A    between atoms: _121  and  _123
REMARK   46  A    between atoms: _123  and  _124
REMARK   47  A    between atoms: _123  and  _126
REMARK   48  A    between atoms: _126  and  _127
REMARK   49  A    between atoms: _127  and  _128
REMARK   50  A    between atoms: _133  and  _135
REMARK   51  A    between atoms: _135  and  _136
REMARK   52  A    between atoms: _135  and  _138
REMARK   53  A    between atoms: _138  and  _139
REMARK   54  A    between atoms: _145  and  _147
REMARK   55  A    between atoms: _158  and  _161
REMARK   56  A    between atoms: _161  and  _162
REMARK   57  A    between atoms: _170  and  _171
REMARK   58  A    between atoms: _179  and  _181
REMARK   59  A    between atoms: _181  and  _182
REMARK   60  A    between atoms: _181  and  _184
REMARK   61  A    between atoms: _184  and  _185
REMARK   62  A    between atoms: _185  and  _186
REMARK   63  A    between atoms: _189  and  _191
REMARK   64  A    between atoms: _191  and  _192
REMARK   65  A    between atoms: _191  and  _194
REMARK   66  A    between atoms: _194  and  _195
REMARK   67  A    between atoms: _195  and  _196
REMARK   68  A    between atoms: _199  and  _201
REMARK   69  A    between atoms: _201  and  _202
REMARK   70  A    between atoms: _201  and  _204
REMARK   71  A    between atoms: _204  and  _205
REMARK   72  A    between atoms: _208  and  _210
REMARK   73  A    between atoms: _210  and  _211
REMARK   74  A    between atoms: _210  and  _213
REMARK   75  A    between atoms: _213  and  _214
REMARK   76  A    between atoms: _215  and  ZN_425
REMARK   77  A    between atoms: _219  and  _221
REMARK   78  A    between atoms: _221  and  _222
REMARK   79  A    between atoms: _221  and  _224
REMARK   80  A    between atoms: _224  and  _225
REMARK   81  A    between atoms: _228  and  _230
REMARK   82  A    between atoms: _230  and  _231
REMARK   83  A    between atoms: _230  and  _233
REMARK   84  A    between atoms: _236  and  _238
REMARK   85  A    between atoms: _238  and  _239
REMARK   86  A    between atoms: _238  and  _241
REMARK   87  A    between atoms: _241  and  _242
REMARK   88  A    between atoms: _247  and  _249
REMARK   89  A    between atoms: _249  and  _250
REMARK   90  A    between atoms: _249  and  _252
REMARK   91  A    between atoms: _252  and  _253
REMARK   92  A    between atoms: _259  and  _261
REMARK   93  A    between atoms: _261  and  _262
REMARK   94  A    between atoms: _261  and  _264
REMARK   95  A    between atoms: _267  and  _269
REMARK   96  A    between atoms: _269  and  _270
REMARK   97  A    between atoms: _269  and  _272
REMARK   98  A    between atoms: _272  and  _273
REMARK   99  A    between atoms: _276  and  _278
REMARK  100  A    between atoms: _278  and  _279
REMARK  101  A    between atoms: _282  and  _284
REMARK  102  A    between atoms: _284  and  _285
REMARK  103  A    between atoms: _284  and  _287
REMARK  104  A    between atoms: _290  and  _292
REMARK  105  A    between atoms: _292  and  _293
REMARK  106  A    between atoms: _292  and  _295
REMARK  107  A    between atoms: _295  and  _296
REMARK  108  A    between atoms: _299  and  _301
REMARK  109  A    between atoms: _301  and  _302
REMARK  110  A    between atoms: _301  and  _304
REMARK  111  A    between atoms: _304  and  _305
REMARK  112  A    between atoms: _307  and  _309
REMARK  113  A    between atoms: _309  and  _310
REMARK  114  A    between atoms: _309  and  _312
REMARK  115  A    between atoms: _312  and  _313
REMARK  116  A    between atoms: _316  and  _318
REMARK  117  A    between atoms: _318  and  _319
REMARK  118  A    between atoms: _318  and  _321
REMARK  119  A    between atoms: _321  and  _322
REMARK  120  A    between atoms: _325  and  _327
REMARK  121  A    between atoms: _327  and  _328
REMARK  122  A    between atoms: _327  and  _330
REMARK  123  A    between atoms: _330  and  _331
REMARK  124  A    between atoms: _335  and  _336
REMARK  125  A    between atoms: _342  and  _343
REMARK  126  A    between atoms: _348  and  _350
REMARK  127  A    between atoms: _350  and  _351
REMARK  128  A    between atoms: _350  and  _353
REMARK  129  A    between atoms: _353  and  _354
REMARK  130  A    between atoms: _357  and  _359
REMARK  131  A    between atoms: _359  and  _360
REMARK  132  A    between atoms: _359  and  _362
REMARK  133  A    between atoms: _362  and  _363
REMARK  134  A    between atoms: _366  and  _368
REMARK  135  A    between atoms: _368  and  _369
REMARK  136  A    between atoms: _368  and  _371
REMARK  137  A    between atoms: _373  and  _375
REMARK  138  A    between atoms: _375  and  _376
REMARK  139  A    between atoms: _375  and  _378
REMARK  140  A    between atoms: _381  and  _383
REMARK  141  A    between atoms: _383  and  _384
REMARK  142  A    between atoms: _383  and  _386
REMARK  143  A    between atoms: _386  and  _387
REMARK  144  A    between atoms: _397  and  _399
REMARK  145  A    between atoms: _399  and  _400
REMARK  146  A    between atoms: _399  and  _402
REMARK  147  A    between atoms: _402  and  _403
REMARK  148  A    between atoms: _408  and  _410
REMARK  149  A    between atoms: _410  and  _411
REMARK  150  A    between atoms: _410  and  _413
REMARK  151  A    between atoms: _413  and  _414
REMARK  152  A    between atoms: _414  and  _415
REMARK  153  A    between atoms: _415  and  _416
REMARK                            x       y       z     vdW  Elec       q    Type
REMARK                         _______ _______ _______ _____ _____    ______ ____
ROOT
ATOM      1  O   HOH     1      -8.678  -3.656   7.884  0.00  0.00    +0.000 OA
ENDROOT
TORSDOF 0
REMARK  Name = ../refined-set-2016/3p58/3p58_pocket.pdb
REMARK  153 active torsions:
REMARK  status: ('A' for Active; 'I' for Inactive)
REMARK    1  A    between atoms: _1  and  _3
REMARK    2  A    between atoms: _3  and  _4
REMARK    3  A    between atoms: _3  and  _6
REMARK    4  A    between atoms: _6  and  _7
REMARK    5  A    between atoms: _17  and  _19
REMARK    6  A    between atoms: _19  and  _20
REMARK    7  A    between atoms: _19  and  _22
REMARK    8  A    between atoms: _22  and  _23
REMARK    9  A    between atoms: _28  and  _29
REMARK   10  A    between atoms: _31  and  _33
REMARK   11  A    between atoms: _33  and  _34
REMARK   12  A    between atoms: _33  and  _36
REMARK   13  A    between atoms: _36  and  _37
REMARK   14  A    between atoms: _39  and  _41
REMARK   15  A    between atoms: _41  and  _42
REMARK   16  A    between atoms: _41  and  _44
REMARK   17  A    between atoms: _44  and  _45
REMARK   18  A    between atoms: _48  and  _50
REMARK   19  A    between atoms: _50  and  _51
REMARK   20  A    between atoms: _50  and  _53
REMARK   21  A    between atoms: _53  and  _54
REMARK   22  A    between atoms: _59  and  _61
REMARK   23  A    between atoms: _61  and  _62
REMARK   24  A    between atoms: _64  and  _66
REMARK   25  A    between atoms: _66  and  _67
REMARK   26  A    between atoms: _66  and  _69
REMARK   27  A    between atoms: _69  and  _70
REMARK   28  A    between atoms: _75  and  _77
REMARK   29  A    between atoms: _77  and  _78
REMARK   30  A    between atoms: _81  and  _83
REMARK   31  A    between atoms: _83  and  _84
REMARK   32  A    between atoms: _83  and  _86
REMARK   33  A    between atoms: _86  and  _87
REMARK   34  A    between atoms: _93  and  _95
REMARK   35  A    between atoms: _95  and  _96
REMARK   36  A    between atoms: _95  and  _98
REMARK   37  A    between atoms: _98  and  _99
REMARK   38  A    between atoms: _104  and  _106
REMARK   39  A    between atoms: _106  and  _107
REMARK   40  A    between atoms: _106  and  _109
REMARK   41  A    between atoms: _112  and  _114
REMARK   42  A    between atoms: _114  and  _115
REMARK   43  A    between atoms: _114  and  _117
REMARK   44  A    between atoms: _117  and  _118
REMARK   45  A    between atoms: _121  and  _123
REMARK   46  A    between atoms: _123  and  _124
REMARK   47  A    between atoms: _123  and  _126
REMARK   48  A    between atoms: _126  and  _127
REMARK   49  A    between atoms: _127  and  _128
REMARK   50  A    between atoms: _133  and  _135
REMARK   51  A    between atoms: _135  and  _136
REMARK   52  A    between atoms: _135  and  _138
REMARK   53  A    between atoms: _138  and  _139
REMARK   54  A    between atoms: _145  and  _147
REMARK   55  A    between atoms: _158  and  _161
REMARK   56  A    between atoms: _161  and  _162
REMARK   57  A    between atoms: _170  and  _171
REMARK   58  A    between atoms: _179  and  _181
REMARK   59  A    between atoms: _181  and  _182
REMARK   60  A    between atoms: _181  and  _184
REMARK   61  A    between atoms: _184  and  _185
REMARK   62  A    between atoms: _185  and  _186
REMARK   63  A    between atoms: _189  and  _191
REMARK   64  A    between atoms: _191  and  _192
REMARK   65  A    between atoms: _191  and  _194
REMARK   66  A    between atoms: _194  and  _195
REMARK   67  A    between atoms: _195  and  _196
REMARK   68  A    between atoms: _199  and  _201
REMARK   69  A    between atoms: _201  and  _202
REMARK   70  A    between atoms: _201  and  _204
REMARK   71  A    between atoms: _204  and  _205
REMARK   72  A    between atoms: _208  and  _210
REMARK   73  A    between atoms: _210  and  _211
REMARK   74  A    between atoms: _210  and  _213
REMARK   75  A    between atoms: _213  and  _214
REMARK   76  A    between atoms: _215  and  ZN_425
REMARK   77  A    between atoms: _219  and  _221
REMARK   78  A    between atoms: _221  and  _222
REMARK   79  A    between atoms: _221  and  _224
REMARK   80  A    between atoms: _224  and  _225
REMARK   81  A    between atoms: _228  and  _230
REMARK   82  A    between atoms: _230  and  _231
REMARK   83  A    between atoms: _230  and  _233
REMARK   84  A    between atoms: _236  and  _238
REMARK   85  A    between atoms: _238  and  _239
REMARK   86  A    between atoms: _238  and  _241
REMARK   87  A    between atoms: _241  and  _242
REMARK   88  A    between atoms: _247  and  _249
REMARK   89  A    between atoms: _249  and  _250
REMARK   90  A    between atoms: _249  and  _252
REMARK   91  A    between atoms: _252  and  _253
REMARK   92  A    between atoms: _259  and  _261
REMARK   93  A    between atoms: _261  and  _262
REMARK   94  A    between atoms: _261  and  _264
REMARK   95  A    between atoms: _267  and  _269
REMARK   96  A    between atoms: _269  and  _270
REMARK   97  A    between atoms: _269  and  _272
REMARK   98  A    between atoms: _272  and  _273
REMARK   99  A    between atoms: _276  and  _278
REMARK  100  A    between atoms: _278  and  _279
REMARK  101  A    between atoms: _282  and  _284
REMARK  102  A    between atoms: _284  and  _285
REMARK  103  A    between atoms: _284  and  _287
REMARK  104  A    between atoms: _290  and  _292
REMARK  105  A    between atoms: _292  and  _293
REMARK  106  A    between atoms: _292  and  _295
REMARK  107  A    between atoms: _295  and  _296
REMARK  108  A    between atoms: _299  and  _301
REMARK  109  A    between atoms: _301  and  _302
REMARK  110  A    between atoms: _301  and  _304
REMARK  111  A    between atoms: _304  and  _305
REMARK  112  A    between atoms: _307  and  _309
REMARK  113  A    between atoms: _309  and  _310
REMARK  114  A    between atoms: _309  and  _312
REMARK  115  A    between atoms: _312  and  _313
REMARK  116  A    between atoms: _316  and  _318
REMARK  117  A    between atoms: _318  and  _319
REMARK  118  A    between atoms: _318  and  _321
REMARK  119  A    between atoms: _321  and  _322
REMARK  120  A    between atoms: _325  and  _327
REMARK  121  A    between atoms: _327  and  _328
REMARK  122  A    between atoms: _327  and  _330
REMARK  123  A    between atoms: _330  and  _331
REMARK  124  A    between atoms: _335  and  _336
REMARK  125  A    between atoms: _342  and  _343
REMARK  126  A    between atoms: _348  and  _350
REMARK  127  A    between atoms: _350  and  _351
REMARK  128  A    between atoms: _350  and  _353
REMARK  129  A    between atoms: _353  and  _354
REMARK  130  A    between atoms: _357  and  _359
REMARK  131  A    between atoms: _359  and  _360
REMARK  132  A    between atoms: _359  and  _362
REMARK  133  A    between atoms: _362  and  _363
REMARK  134  A    between atoms: _366  and  _368
REMARK  135  A    between atoms: _368  and  _369
REMARK  136  A    between atoms: _368  and  _371
REMARK  137  A    between atoms: _373  and  _375
REMARK  138  A    between atoms: _375  and  _376
REMARK  139  A    between atoms: _375  and  _378
REMARK  140  A    between atoms: _381  and  _383
REMARK  141  A    between atoms: _383  and  _384
REMARK  142  A    between atoms: _383  and  _386
REMARK  143  A    between atoms: _386  and  _387
REMARK  144  A    between atoms: _397  and  _399
REMARK  145  A    between atoms: _399  and  _400
REMARK  146  A    between atoms: _399  and  _402
REMARK  147  A    between atoms: _402  and  _403
REMARK  148  A    between atoms: _408  and  _410
REMARK  149  A    between atoms: _410  and  _411
REMARK  150  A    between atoms: _410  and  _413
REMARK  151  A    between atoms: _413  and  _414
REMARK  152  A    between atoms: _414  and  _415
REMARK  153  A    between atoms: _415  and  _416
REMARK                            x       y       z     vdW  Elec       q    Type
REMARK                         _______ _______ _______ _____ _____    ______ ____
ROOT
ATOM      1  O   HOH     1      -7.022   6.088   6.584  0.00  0.00    +0.000 OA
ENDROOT
TORSDOF 0
REMARK  Name = ../refined-set-2016/3p58/3p58_pocket.pdb
REMARK  153 active torsions:
REMARK  status: ('A' for Active; 'I' for Inactive)
REMARK    1  A    between atoms: _1  and  _3
REMARK    2  A    between atoms: _3  and  _4
REMARK    3  A    between atoms: _3  and  _6
REMARK    4  A    between atoms: _6  and  _7
REMARK    5  A    between atoms: _17  and  _19
REMARK    6  A    between atoms: _19  and  _20
REMARK    7  A    between atoms: _19  and  _22
REMARK    8  A    between atoms: _22  and  _23
REMARK    9  A    between atoms: _28  and  _29
REMARK   10  A    between atoms: _31  and  _33
REMARK   11  A    between atoms: _33  and  _34
REMARK   12  A    between atoms: _33  and  _36
REMARK   13  A    between atoms: _36  and  _37
REMARK   14  A    between atoms: _39  and  _41
REMARK   15  A    between atoms: _41  and  _42
REMARK   16  A    between atoms: _41  and  _44
REMARK   17  A    between atoms: _44  and  _45
REMARK   18  A    between atoms: _48  and  _50
REMARK   19  A    between atoms: _50  and  _51
REMARK   20  A    between atoms: _50  and  _53
REMARK   21  A    between atoms: _53  and  _54
REMARK   22  A    between atoms: _59  and  _61
REMARK   23  A    between atoms: _61  and  _62
REMARK   24  A    between atoms: _64  and  _66
REMARK   25  A    between atoms: _66  and  _67
REMARK   26  A    between atoms: _66  and  _69
REMARK   27  A    between atoms: _69  and  _70
REMARK   28  A    between atoms: _75  and  _77
REMARK   29  A    between atoms: _77  and  _78
REMARK   30  A    between atoms: _81  and  _83
REMARK   31  A    between atoms: _83  and  _84
REMARK   32  A    between atoms: _83  and  _86
REMARK   33  A    between atoms: _86  and  _87
REMARK   34  A    between atoms: _93  and  _95
REMARK   35  A    between atoms: _95  and  _96
REMARK   36  A    between atoms: _95  and  _98
REMARK   37  A    between atoms: _98  and  _99
REMARK   38  A    between atoms: _104  and  _106
REMARK   39  A    between atoms: _106  and  _107
REMARK   40  A    between atoms: _106  and  _109
REMARK   41  A    between atoms: _112  and  _114
REMARK   42  A    between atoms: _114  and  _115
REMARK   43  A    between atoms: _114  and  _117
REMARK   44  A    between atoms: _117  and  _118
REMARK   45  A    between atoms: _121  and  _123
REMARK   46  A    between atoms: _123  and  _124
REMARK   47  A    between atoms: _123  and  _126
REMARK   48  A    between atoms: _126  and  _127
REMARK   49  A    between atoms: _127  and  _128
REMARK   50  A    between atoms: _133  and  _135
REMARK   51  A    between atoms: _135  and  _136
REMARK   52  A    between atoms: _135  and  _138
REMARK   53  A    between atoms: _138  and  _139
REMARK   54  A    between atoms: _145  and  _147
REMARK   55  A    between atoms: _158  and  _161
REMARK   56  A    between atoms: _161  and  _162
REMARK   57  A    between atoms: _170  and  _171
REMARK   58  A    between atoms: _179  and  _181
REMARK   59  A    between atoms: _181  and  _182
REMARK   60  A    between atoms: _181  and  _184
REMARK   61  A    between atoms: _184  and  _185
REMARK   62  A    between atoms: _185  and  _186
REMARK   63  A    between atoms: _189  and  _191
REMARK   64  A    between atoms: _191  and  _192
REMARK   65  A    between atoms: _191  and  _194
REMARK   66  A    between atoms: _194  and  _195
REMARK   67  A    between atoms: _195  and  _196
REMARK   68  A    between atoms: _199  and  _201
REMARK   69  A    between atoms: _201  and  _202
REMARK   70  A    between atoms: _201  and  _204
REMARK   71  A    between atoms: _204  and  _205
REMARK   72  A    between atoms: _208  and  _210
REMARK   73  A    between atoms: _210  and  _211
REMARK   74  A    between atoms: _210  and  _213
REMARK   75  A    between atoms: _213  and  _214
REMARK   76  A    between atoms: _215  and  ZN_425
REMARK   77  A    between atoms: _219  and  _221
REMARK   78  A    between atoms: _221  and  _222
REMARK   79  A    between atoms: _221  and  _224
REMARK   80  A    between atoms: _224  and  _225
REMARK   81  A    between atoms: _228  and  _230
REMARK   82  A    between atoms: _230  and  _231
REMARK   83  A    between atoms: _230  and  _233
REMARK   84  A    between atoms: _236  and  _238
REMARK   85  A    between atoms: _238  and  _239
REMARK   86  A    between atoms: _238  and  _241
REMARK   87  A    between atoms: _241  and  _242
REMARK   88  A    between atoms: _247  and  _249
REMARK   89  A    between atoms: _249  and  _250
REMARK   90  A    between atoms: _249  and  _252
REMARK   91  A    between atoms: _252  and  _253
REMARK   92  A    between atoms: _259  and  _261
REMARK   93  A    between atoms: _261  and  _262
REMARK   94  A    between atoms: _261  and  _264
REMARK   95  A    between atoms: _267  and  _269
REMARK   96  A    between atoms: _269  and  _270
REMARK   97  A    between atoms: _269  and  _272
REMARK   98  A    between atoms: _272  and  _273
REMARK   99  A    between atoms: _276  and  _278
REMARK  100  A    between atoms: _278  and  _279
REMARK  101  A    between atoms: _282  and  _284
REMARK  102  A    between atoms: _284  and  _285
REMARK  103  A    between atoms: _284  and  _287
REMARK  104  A    between atoms: _290  and  _292
REMARK  105  A    between atoms: _292  and  _293
REMARK  106  A    between atoms: _292  and  _295
REMARK  107  A    between atoms: _295  and  _296
REMARK  108  A    between atoms: _299  and  _301
REMARK  109  A    between atoms: _301  and  _302
REMARK  110  A    between atoms: _301  and  _304
REMARK  111  A    between atoms: _304  and  _305
REMARK  112  A    between atoms: _307  and  _309
REMARK  113  A    between atoms: _309  and  _310
REMARK  114  A    between atoms: _309  and  _312
REMARK  115  A    between atoms: _312  and  _313
REMARK  116  A    between atoms: _316  and  _318
REMARK  117  A    between atoms: _318  and  _319
REMARK  118  A    between atoms: _318  and  _321
REMARK  119  A    between atoms: _321  and  _322
REMARK  120  A    between atoms: _325  and  _327
REMARK  121  A    between atoms: _327  and  _328
REMARK  122  A    between atoms: _327  and  _330
REMARK  123  A    between atoms: _330  and  _331
REMARK  124  A    between atoms: _335  and  _336
REMARK  125  A    between atoms: _342  and  _343
REMARK  126  A    between atoms: _348  and  _350
REMARK  127  A    between atoms: _350  and  _351
REMARK  128  A    between atoms: _350  and  _353
REMARK  129  A    between atoms: _353  and  _354
REMARK  130  A    between atoms: _357  and  _359
REMARK  131  A    between atoms: _359  and  _360
REMARK  132  A    between atoms: _359  and  _362
REMARK  133  A    between atoms: _362  and  _363
REMARK  134  A    between atoms: _366  and  _368
REMARK  135  A    between atoms: _368  and  _369
REMARK  136  A    between atoms: _368  and  _371
REMARK  137  A    between atoms: _373  and  _375
REMARK  138  A    between atoms: _375  and  _376
REMARK  139  A    between atoms: _375  and  _378
REMARK  140  A    between atoms: _381  and  _383
REMARK  141  A    between atoms: _383  and  _384
REMARK  142  A    between atoms: _383  and  _386
REMARK  143  A    between atoms: _386  and  _387
REMARK  144  A    between atoms: _397  and  _399
REMARK  145  A    between atoms: _399  and  _400
REMARK  146  A    between atoms: _399  and  _402
REMARK  147  A    between atoms: _402  and  _403
REMARK  148  A    between atoms: _408  and  _410
REMARK  149  A    between atoms: _410  and  _411
REMARK  150  A    between atoms: _410  and  _413
REMARK  151  A    between atoms: _413  and  _414
REMARK  152  A    between atoms: _414  and  _415
REMARK  153  A    between atoms: _415  and  _416
REMARK                            x       y       z     vdW  Elec       q    Type
REMARK                         _______ _______ _______ _____ _____    ______ ____
ROOT
ATOM      1  O   HOH     1      -6.489   6.893  10.749  0.00  0.00    +0.000 OA
ENDROOT
TORSDOF 0
REMARK  Name = ../refined-set-2016/3p58/3p58_pocket.pdb
REMARK  153 active torsions:
REMARK  status: ('A' for Active; 'I' for Inactive)
REMARK    1  A    between atoms: _1  and  _3
REMARK    2  A    between atoms: _3  and  _4
REMARK    3  A    between atoms: _3  and  _6
REMARK    4  A    between atoms: _6  and  _7
REMARK    5  A    between atoms: _17  and  _19
REMARK    6  A    between atoms: _19  and  _20
REMARK    7  A    between atoms: _19  and  _22
REMARK    8  A    between atoms: _22  and  _23
REMARK    9  A    between atoms: _28  and  _29
REMARK   10  A    between atoms: _31  and  _33
REMARK   11  A    between atoms: _33  and  _34
REMARK   12  A    between atoms: _33  and  _36
REMARK   13  A    between atoms: _36  and  _37
REMARK   14  A    between atoms: _39  and  _41
REMARK   15  A    between atoms: _41  and  _42
REMARK   16  A    between atoms: _41  and  _44
REMARK   17  A    between atoms: _44  and  _45
REMARK   18  A    between atoms: _48  and  _50
REMARK   19  A    between atoms: _50  and  _51
REMARK   20  A    between atoms: _50  and  _53
REMARK   21  A    between atoms: _53  and  _54
REMARK   22  A    between atoms: _59  and  _61
REMARK   23  A    between atoms: _61  and  _62
REMARK   24  A    between atoms: _64  and  _66
REMARK   25  A    between atoms: _66  and  _67
REMARK   26  A    between atoms: _66  and  _69
REMARK   27  A    between atoms: _69  and  _70
REMARK   28  A    between atoms: _75  and  _77
REMARK   29  A    between atoms: _77  and  _78
REMARK   30  A    between atoms: _81  and  _83
REMARK   31  A    between atoms: _83  and  _84
REMARK   32  A    between atoms: _83  and  _86
REMARK   33  A    between atoms: _86  and  _87
REMARK   34  A    between atoms: _93  and  _95
REMARK   35  A    between atoms: _95  and  _96
REMARK   36  A    between atoms: _95  and  _98
REMARK   37  A    between atoms: _98  and  _99
REMARK   38  A    between atoms: _104  and  _106
REMARK   39  A    between atoms: _106  and  _107
REMARK   40  A    between atoms: _106  and  _109
REMARK   41  A    between atoms: _112  and  _114
REMARK   42  A    between atoms: _114  and  _115
REMARK   43  A    between atoms: _114  and  _117
REMARK   44  A    between atoms: _117  and  _118
REMARK   45  A    between atoms: _121  and  _123
REMARK   46  A    between atoms: _123  and  _124
REMARK   47  A    between atoms: _123  and  _126
REMARK   48  A    between atoms: _126  and  _127
REMARK   49  A    between atoms: _127  and  _128
REMARK   50  A    between atoms: _133  and  _135
REMARK   51  A    between atoms: _135  and  _136
REMARK   52  A    between atoms: _135  and  _138
REMARK   53  A    between atoms: _138  and  _139
REMARK   54  A    between atoms: _145  and  _147
REMARK   55  A    between atoms: _158  and  _161
REMARK   56  A    between atoms: _161  and  _162
REMARK   57  A    between atoms: _170  and  _171
REMARK   58  A    between atoms: _179  and  _181
REMARK   59  A    between atoms: _181  and  _182
REMARK   60  A    between atoms: _181  and  _184
REMARK   61  A    between atoms: _184  and  _185
REMARK   62  A    between atoms: _185  and  _186
REMARK   63  A    between atoms: _189  and  _191
REMARK   64  A    between atoms: _191  and  _192
REMARK   65  A    between atoms: _191  and  _194
REMARK   66  A    between atoms: _194  and  _195
REMARK   67  A    between atoms: _195  and  _196
REMARK   68  A    between atoms: _199  and  _201
REMARK   69  A    between atoms: _201  and  _202
REMARK   70  A    between atoms: _201  and  _204
REMARK   71  A    between atoms: _204  and  _205
REMARK   72  A    between atoms: _208  and  _210
REMARK   73  A    between atoms: _210  and  _211
REMARK   74  A    between atoms: _210  and  _213
REMARK   75  A    between atoms: _213  and  _214
REMARK   76  A    between atoms: _215  and  ZN_425
REMARK   77  A    between atoms: _219  and  _221
REMARK   78  A    between atoms: _221  and  _222
REMARK   79  A    between atoms: _221  and  _224
REMARK   80  A    between atoms: _224  and  _225
REMARK   81  A    between atoms: _228  and  _230
REMARK   82  A    between atoms: _230  and  _231
REMARK   83  A    between atoms: _230  and  _233
REMARK   84  A    between atoms: _236  and  _238
REMARK   85  A    between atoms: _238  and  _239
REMARK   86  A    between atoms: _238  and  _241
REMARK   87  A    between atoms: _241  and  _242
REMARK   88  A    between atoms: _247  and  _249
REMARK   89  A    between atoms: _249  and  _250
REMARK   90  A    between atoms: _249  and  _252
REMARK   91  A    between atoms: _252  and  _253
REMARK   92  A    between atoms: _259  and  _261
REMARK   93  A    between atoms: _261  and  _262
REMARK   94  A    between atoms: _261  and  _264
REMARK   95  A    between atoms: _267  and  _269
REMARK   96  A    between atoms: _269  and  _270
REMARK   97  A    between atoms: _269  and  _272
REMARK   98  A    between atoms: _272  and  _273
REMARK   99  A    between atoms: _276  and  _278
REMARK  100  A    between atoms: _278  and  _279
REMARK  101  A    between atoms: _282  and  _284
REMARK  102  A    between atoms: _284  and  _285
REMARK  103  A    between atoms: _284  and  _287
REMARK  104  A    between atoms: _290  and  _292
REMARK  105  A    between atoms: _292  and  _293
REMARK  106  A    between atoms: _292  and  _295
REMARK  107  A    between atoms: _295  and  _296
REMARK  108  A    between atoms: _299  and  _301
REMARK  109  A    between atoms: _301  and  _302
REMARK  110  A    between atoms: _301  and  _304
REMARK  111  A    between atoms: _304  and  _305
REMARK  112  A    between atoms: _307  and  _309
REMARK  113  A    between atoms: _309  and  _310
REMARK  114  A    between atoms: _309  and  _312
REMARK  115  A    between atoms: _312  and  _313
REMARK  116  A    between atoms: _316  and  _318
REMARK  117  A    between atoms: _318  and  _319
REMARK  118  A    between atoms: _318  and  _321
REMARK  119  A    between atoms: _321  and  _322
REMARK  120  A    between atoms: _325  and  _327
REMARK  121  A    between atoms: _327  and  _328
REMARK  122  A    between atoms: _327  and  _330
REMARK  123  A    between atoms: _330  and  _331
REMARK  124  A    between atoms: _335  and  _336
REMARK  125  A    between atoms: _342  and  _343
REMARK  126  A    between atoms: _348  and  _350
REMARK  127  A    between atoms: _350  and  _351
REMARK  128  A    between atoms: _350  and  _353
REMARK  129  A    between atoms: _353  and  _354
REMARK  130  A    between atoms: _357  and  _359
REMARK  131  A    between atoms: _359  and  _360
REMARK  132  A    between atoms: _359  and  _362
REMARK  133  A    between atoms: _362  and  _363
REMARK  134  A    between atoms: _366  and  _368
REMARK  135  A    between atoms: _368  and  _369
REMARK  136  A    between atoms: _368  and  _371
REMARK  137  A    between atoms: _373  and  _375
REMARK  138  A    between atoms: _375  and  _376
REMARK  139  A    between atoms: _375  and  _378
REMARK  140  A    between atoms: _381  and  _383
REMARK  141  A    between atoms: _383  and  _384
REMARK  142  A    between atoms: _383  and  _386
REMARK  143  A    between atoms: _386  and  _387
REMARK  144  A    between atoms: _397  and  _399
REMARK  145  A    between atoms: _399  and  _400
REMARK  146  A    between atoms: _399  and  _402
REMARK  147  A    between atoms: _402  and  _403
REMARK  148  A    between atoms: _408  and  _410
REMARK  149  A    between atoms: _410  and  _411
REMARK  150  A    between atoms: _410  and  _413
REMARK  151  A    between atoms: _413  and  _414
REMARK  152  A    between atoms: _414  and  _415
REMARK  153  A    between atoms: _415  and  _416
REMARK                            x       y       z     vdW  Elec       q    Type
REMARK                         _______ _______ _______ _____ _____    ______ ____
ROOT
ATOM      1  O   HOH     1      -0.206   3.848  10.346  0.00  0.00    +0.000 OA
ENDROOT
TORSDOF 0
REMARK  Name = ../refined-set-2016/3p58/3p58_pocket.pdb
REMARK  153 active torsions:
REMARK  status: ('A' for Active; 'I' for Inactive)
REMARK    1  A    between atoms: _1  and  _3
REMARK    2  A    between atoms: _3  and  _4
REMARK    3  A    between atoms: _3  and  _6
REMARK    4  A    between atoms: _6  and  _7
REMARK    5  A    between atoms: _17  and  _19
REMARK    6  A    between atoms: _19  and  _20
REMARK    7  A    between atoms: _19  and  _22
REMARK    8  A    between atoms: _22  and  _23
REMARK    9  A    between atoms: _28  and  _29
REMARK   10  A    between atoms: _31  and  _33
REMARK   11  A    between atoms: _33  and  _34
REMARK   12  A    between atoms: _33  and  _36
REMARK   13  A    between atoms: _36  and  _37
REMARK   14  A    between atoms: _39  and  _41
REMARK   15  A    between atoms: _41  and  _42
REMARK   16  A    between atoms: _41  and  _44
REMARK   17  A    between atoms: _44  and  _45
REMARK   18  A    between atoms: _48  and  _50
REMARK   19  A    between atoms: _50  and  _51
REMARK   20  A    between atoms: _50  and  _53
REMARK   21  A    between atoms: _53  and  _54
REMARK   22  A    between atoms: _59  and  _61
REMARK   23  A    between atoms: _61  and  _62
REMARK   24  A    between atoms: _64  and  _66
REMARK   25  A    between atoms: _66  and  _67
REMARK   26  A    between atoms: _66  and  _69
REMARK   27  A    between atoms: _69  and  _70
REMARK   28  A    between atoms: _75  and  _77
REMARK   29  A    between atoms: _77  and  _78
REMARK   30  A    between atoms: _81  and  _83
REMARK   31  A    between atoms: _83  and  _84
REMARK   32  A    between atoms: _83  and  _86
REMARK   33  A    between atoms: _86  and  _87
REMARK   34  A    between atoms: _93  and  _95
REMARK   35  A    between atoms: _95  and  _96
REMARK   36  A    between atoms: _95  and  _98
REMARK   37  A    between atoms: _98  and  _99
REMARK   38  A    between atoms: _104  and  _106
REMARK   39  A    between atoms: _106  and  _107
REMARK   40  A    between atoms: _106  and  _109
REMARK   41  A    between atoms: _112  and  _114
REMARK   42  A    between atoms: _114  and  _115
REMARK   43  A    between atoms: _114  and  _117
REMARK   44  A    between atoms: _117  and  _118
REMARK   45  A    between atoms: _121  and  _123
REMARK   46  A    between atoms: _123  and  _124
REMARK   47  A    between atoms: _123  and  _126
REMARK   48  A    between atoms: _126  and  _127
REMARK   49  A    between atoms: _127  and  _128
REMARK   50  A    between atoms: _133  and  _135
REMARK   51  A    between atoms: _135  and  _136
REMARK   52  A    between atoms: _135  and  _138
REMARK   53  A    between atoms: _138  and  _139
REMARK   54  A    between atoms: _145  and  _147
REMARK   55  A    between atoms: _158  and  _161
REMARK   56  A    between atoms: _161  and  _162
REMARK   57  A    between atoms: _170  and  _171
REMARK   58  A    between atoms: _179  and  _181
REMARK   59  A    between atoms: _181  and  _182
REMARK   60  A    between atoms: _181  and  _184
REMARK   61  A    between atoms: _184  and  _185
REMARK   62  A    between atoms: _185  and  _186
REMARK   63  A    between atoms: _189  and  _191
REMARK   64  A    between atoms: _191  and  _192
REMARK   65  A    between atoms: _191  and  _194
REMARK   66  A    between atoms: _194  and  _195
REMARK   67  A    between atoms: _195  and  _196
REMARK   68  A    between atoms: _199  and  _201
REMARK   69  A    between atoms: _201  and  _202
REMARK   70  A    between atoms: _201  and  _204
REMARK   71  A    between atoms: _204  and  _205
REMARK   72  A    between atoms: _208  and  _210
REMARK   73  A    between atoms: _210  and  _211
REMARK   74  A    between atoms: _210  and  _213
REMARK   75  A    between atoms: _213  and  _214
REMARK   76  A    between atoms: _215  and  ZN_425
REMARK   77  A    between atoms: _219  and  _221
REMARK   78  A    between atoms: _221  and  _222
REMARK   79  A    between atoms: _221  and  _224
REMARK   80  A    between atoms: _224  and  _225
REMARK   81  A    between atoms: _228  and  _230
REMARK   82  A    between atoms: _230  and  _231
REMARK   83  A    between atoms: _230  and  _233
REMARK   84  A    between atoms: _236  and  _238
REMARK   85  A    between atoms: _238  and  _239
REMARK   86  A    between atoms: _238  and  _241
REMARK   87  A    between atoms: _241  and  _242
REMARK   88  A    between atoms: _247  and  _249
REMARK   89  A    between atoms: _249  and  _250
REMARK   90  A    between atoms: _249  and  _252
REMARK   91  A    between atoms: _252  and  _253
REMARK   92  A    between atoms: _259  and  _261
REMARK   93  A    between atoms: _261  and  _262
REMARK   94  A    between atoms: _261  and  _264
REMARK   95  A    between atoms: _267  and  _269
REMARK   96  A    between atoms: _269  and  _270
REMARK   97  A    between atoms: _269  and  _272
REMARK   98  A    between atoms: _272  and  _273
REMARK   99  A    between atoms: _276  and  _278
REMARK  100  A    between atoms: _278  and  _279
REMARK  101  A    between atoms: _282  and  _284
REMARK  102  A    between atoms: _284  and  _285
REMARK  103  A    between atoms: _284  and  _287
REMARK  104  A    between atoms: _290  and  _292
REMARK  105  A    between atoms: _292  and  _293
REMARK  106  A    between atoms: _292  and  _295
REMARK  107  A    between atoms: _295  and  _296
REMARK  108  A    between atoms: _299  and  _301
REMARK  109  A    between atoms: _301  and  _302
REMARK  110  A    between atoms: _301  and  _304
REMARK  111  A    between atoms: _304  and  _305
REMARK  112  A    between atoms: _307  and  _309
REMARK  113  A    between atoms: _309  and  _310
REMARK  114  A    between atoms: _309  and  _312
REMARK  115  A    between atoms: _312  and  _313
REMARK  116  A    between atoms: _316  and  _318
REMARK  117  A    between atoms: _318  and  _319
REMARK  118  A    between atoms: _318  and  _321
REMARK  119  A    between atoms: _321  and  _322
REMARK  120  A    between atoms: _325  and  _327
REMARK  121  A    between atoms: _327  and  _328
REMARK  122  A    between atoms: _327  and  _330
REMARK  123  A    between atoms: _330  and  _331
REMARK  124  A    between atoms: _335  and  _336
REMARK  125  A    between atoms: _342  and  _343
REMARK  126  A    between atoms: _348  and  _350
REMARK  127  A    between atoms: _350  and  _351
REMARK  128  A    between atoms: _350  and  _353
REMARK  129  A    between atoms: _353  and  _354
REMARK  130  A    between atoms: _357  and  _359
REMARK  131  A    between atoms: _359  and  _360
REMARK  132  A    between atoms: _359  and  _362
REMARK  133  A    between atoms: _362  and  _363
REMARK  134  A    between atoms: _366  and  _368
REMARK  135  A    between atoms: _368  and  _369
REMARK  136  A    between atoms: _368  and  _371
REMARK  137  A    between atoms: _373  and  _375
REMARK  138  A    between atoms: _375  and  _376
REMARK  139  A    between atoms: _375  and  _378
REMARK  140  A    between atoms: _381  and  _383
REMARK  141  A    between atoms: _383  and  _384
REMARK  142  A    between atoms: _383  and  _386
REMARK  143  A    between atoms: _386  and  _387
REMARK  144  A    between atoms: _397  and  _399
REMARK  145  A    between atoms: _399  and  _400
REMARK  146  A    between atoms: _399  and  _402
REMARK  147  A    between atoms: _402  and  _403
REMARK  148  A    between atoms: _408  and  _410
REMARK  149  A    between atoms: _410  and  _411
REMARK  150  A    between atoms: _410  and  _413
REMARK  151  A    between atoms: _413  and  _414
REMARK  152  A    between atoms: _414  and  _415
REMARK  153  A    between atoms: _415  and  _416
REMARK                            x       y       z     vdW  Elec       q    Type
REMARK                         _______ _______ _______ _____ _____    ______ ____
ROOT
ATOM      1  O   HOH     1      -3.862   4.977   7.267  0.00  0.00    +0.000 OA
ENDROOT
TORSDOF 0
REMARK  Name = ../refined-set-2016/3p58/3p58_pocket.pdb
REMARK  153 active torsions:
REMARK  status: ('A' for Active; 'I' for Inactive)
REMARK    1  A    between atoms: _1  and  _3
REMARK    2  A    between atoms: _3  and  _4
REMARK    3  A    between atoms: _3  and  _6
REMARK    4  A    between atoms: _6  and  _7
REMARK    5  A    between atoms: _17  and  _19
REMARK    6  A    between atoms: _19  and  _20
REMARK    7  A    between atoms: _19  and  _22
REMARK    8  A    between atoms: _22  and  _23
REMARK    9  A    between atoms: _28  and  _29
REMARK   10  A    between atoms: _31  and  _33
REMARK   11  A    between atoms: _33  and  _34
REMARK   12  A    between atoms: _33  and  _36
REMARK   13  A    between atoms: _36  and  _37
REMARK   14  A    between atoms: _39  and  _41
REMARK   15  A    between atoms: _41  and  _42
REMARK   16  A    between atoms: _41  and  _44
REMARK   17  A    between atoms: _44  and  _45
REMARK   18  A    between atoms: _48  and  _50
REMARK   19  A    between atoms: _50  and  _51
REMARK   20  A    between atoms: _50  and  _53
REMARK   21  A    between atoms: _53  and  _54
REMARK   22  A    between atoms: _59  and  _61
REMARK   23  A    between atoms: _61  and  _62
REMARK   24  A    between atoms: _64  and  _66
REMARK   25  A    between atoms: _66  and  _67
REMARK   26  A    between atoms: _66  and  _69
REMARK   27  A    between atoms: _69  and  _70
REMARK   28  A    between atoms: _75  and  _77
REMARK   29  A    between atoms: _77  and  _78
REMARK   30  A    between atoms: _81  and  _83
REMARK   31  A    between atoms: _83  and  _84
REMARK   32  A    between atoms: _83  and  _86
REMARK   33  A    between atoms: _86  and  _87
REMARK   34  A    between atoms: _93  and  _95
REMARK   35  A    between atoms: _95  and  _96
REMARK   36  A    between atoms: _95  and  _98
REMARK   37  A    between atoms: _98  and  _99
REMARK   38  A    between atoms: _104  and  _106
REMARK   39  A    between atoms: _106  and  _107
REMARK   40  A    between atoms: _106  and  _109
REMARK   41  A    between atoms: _112  and  _114
REMARK   42  A    between atoms: _114  and  _115
REMARK   43  A    between atoms: _114  and  _117
REMARK   44  A    between atoms: _117  and  _118
REMARK   45  A    between atoms: _121  and  _123
REMARK   46  A    between atoms: _123  and  _124
REMARK   47  A    between atoms: _123  and  _126
REMARK   48  A    between atoms: _126  and  _127
REMARK   49  A    between atoms: _127  and  _128
REMARK   50  A    between atoms: _133  and  _135
REMARK   51  A    between atoms: _135  and  _136
REMARK   52  A    between atoms: _135  and  _138
REMARK   53  A    between atoms: _138  and  _139
REMARK   54  A    between atoms: _145  and  _147
REMARK   55  A    between atoms: _158  and  _161
REMARK   56  A    between atoms: _161  and  _162
REMARK   57  A    between atoms: _170  and  _171
REMARK   58  A    between atoms: _179  and  _181
REMARK   59  A    between atoms: _181  and  _182
REMARK   60  A    between atoms: _181  and  _184
REMARK   61  A    between atoms: _184  and  _185
REMARK   62  A    between atoms: _185  and  _186
REMARK   63  A    between atoms: _189  and  _191
REMARK   64  A    between atoms: _191  and  _192
REMARK   65  A    between atoms: _191  and  _194
REMARK   66  A    between atoms: _194  and  _195
REMARK   67  A    between atoms: _195  and  _196
REMARK   68  A    between atoms: _199  and  _201
REMARK   69  A    between atoms: _201  and  _202
REMARK   70  A    between atoms: _201  and  _204
REMARK   71  A    between atoms: _204  and  _205
REMARK   72  A    between atoms: _208  and  _210
REMARK   73  A    between atoms: _210  and  _211
REMARK   74  A    between atoms: _210  and  _213
REMARK   75  A    between atoms: _213  and  _214
REMARK   76  A    between atoms: _215  and  ZN_425
REMARK   77  A    between atoms: _219  and  _221
REMARK   78  A    between atoms: _221  and  _222
REMARK   79  A    between atoms: _221  and  _224
REMARK   80  A    between atoms: _224  and  _225
REMARK   81  A    between atoms: _228  and  _230
REMARK   82  A    between atoms: _230  and  _231
REMARK   83  A    between atoms: _230  and  _233
REMARK   84  A    between atoms: _236  and  _238
REMARK   85  A    between atoms: _238  and  _239
REMARK   86  A    between atoms: _238  and  _241
REMARK   87  A    between atoms: _241  and  _242
REMARK   88  A    between atoms: _247  and  _249
REMARK   89  A    between atoms: _249  and  _250
REMARK   90  A    between atoms: _249  and  _252
REMARK   91  A    between atoms: _252  and  _253
REMARK   92  A    between atoms: _259  and  _261
REMARK   93  A    between atoms: _261  and  _262
REMARK   94  A    between atoms: _261  and  _264
REMARK   95  A    between atoms: _267  and  _269
REMARK   96  A    between atoms: _269  and  _270
REMARK   97  A    between atoms: _269  and  _272
REMARK   98  A    between atoms: _272  and  _273
REMARK   99  A    between atoms: _276  and  _278
REMARK  100  A    between atoms: _278  and  _279
REMARK  101  A    between atoms: _282  and  _284
REMARK  102  A    between atoms: _284  and  _285
REMARK  103  A    between atoms: _284  and  _287
REMARK  104  A    between atoms: _290  and  _292
REMARK  105  A    between atoms: _292  and  _293
REMARK  106  A    between atoms: _292  and  _295
REMARK  107  A    between atoms: _295  and  _296
REMARK  108  A    between atoms: _299  and  _301
REMARK  109  A    between atoms: _301  and  _302
REMARK  110  A    between atoms: _301  and  _304
REMARK  111  A    between atoms: _304  and  _305
REMARK  112  A    between atoms: _307  and  _309
REMARK  113  A    between atoms: _309  and  _310
REMARK  114  A    between atoms: _309  and  _312
REMARK  115  A    between atoms: _312  and  _313
REMARK  116  A    between atoms: _316  and  _318
REMARK  117  A    between atoms: _318  and  _319
REMARK  118  A    between atoms: _318  and  _321
REMARK  119  A    between atoms: _321  and  _322
REMARK  120  A    between atoms: _325  and  _327
REMARK  121  A    between atoms: _327  and  _328
REMARK  122  A    between atoms: _327  and  _330
REMARK  123  A    between atoms: _330  and  _331
REMARK  124  A    between atoms: _335  and  _336
REMARK  125  A    between atoms: _342  and  _343
REMARK  126  A    between atoms: _348  and  _350
REMARK  127  A    between atoms: _350  and  _351
REMARK  128  A    between atoms: _350  and  _353
REMARK  129  A    between atoms: _353  and  _354
REMARK  130  A    between atoms: _357  and  _359
REMARK  131  A    between atoms: _359  and  _360
REMARK  132  A    between atoms: _359  and  _362
REMARK  133  A    between atoms: _362  and  _363
REMARK  134  A    between atoms: _366  and  _368
REMARK  135  A    between atoms: _368  and  _369
REMARK  136  A    between atoms: _368  and  _371
REMARK  137  A    between atoms: _373  and  _375
REMARK  138  A    between atoms: _375  and  _376
REMARK  139  A    between atoms: _375  and  _378
REMARK  140  A    between atoms: _381  and  _383
REMARK  141  A    between atoms: _383  and  _384
REMARK  142  A    between atoms: _383  and  _386
REMARK  143  A    between atoms: _386  and  _387
REMARK  144  A    between atoms: _397  and  _399
REMARK  145  A    between atoms: _399  and  _400
REMARK  146  A    between atoms: _399  and  _402
REMARK  147  A    between atoms: _402  and  _403
REMARK  148  A    between atoms: _408  and  _410
REMARK  149  A    between atoms: _410  and  _411
REMARK  150  A    between atoms: _410  and  _413
REMARK  151  A    between atoms: _413  and  _414
REMARK  152  A    between atoms: _414  and  _415
REMARK  153  A    between atoms: _415  and  _416
REMARK                            x       y       z     vdW  Elec       q    Type
REMARK                         _______ _______ _______ _____ _____    ______ ____
ROOT
ATOM      1  O   HOH     1      -2.613   6.146  13.793  0.00  0.00    +0.000 OA
ENDROOT
TORSDOF 0
REMARK  Name = ../refined-set-2016/3p58/3p58_pocket.pdb
REMARK  153 active torsions:
REMARK  status: ('A' for Active; 'I' for Inactive)
REMARK    1  A    between atoms: _1  and  _3
REMARK    2  A    between atoms: _3  and  _4
REMARK    3  A    between atoms: _3  and  _6
REMARK    4  A    between atoms: _6  and  _7
REMARK    5  A    between atoms: _17  and  _19
REMARK    6  A    between atoms: _19  and  _20
REMARK    7  A    between atoms: _19  and  _22
REMARK    8  A    between atoms: _22  and  _23
REMARK    9  A    between atoms: _28  and  _29
REMARK   10  A    between atoms: _31  and  _33
REMARK   11  A    between atoms: _33  and  _34
REMARK   12  A    between atoms: _33  and  _36
REMARK   13  A    between atoms: _36  and  _37
REMARK   14  A    between atoms: _39  and  _41
REMARK   15  A    between atoms: _41  and  _42
REMARK   16  A    between atoms: _41  and  _44
REMARK   17  A    between atoms: _44  and  _45
REMARK   18  A    between atoms: _48  and  _50
REMARK   19  A    between atoms: _50  and  _51
REMARK   20  A    between atoms: _50  and  _53
REMARK   21  A    between atoms: _53  and  _54
REMARK   22  A    between atoms: _59  and  _61
REMARK   23  A    between atoms: _61  and  _62
REMARK   24  A    between atoms: _64  and  _66
REMARK   25  A    between atoms: _66  and  _67
REMARK   26  A    between atoms: _66  and  _69
REMARK   27  A    between atoms: _69  and  _70
REMARK   28  A    between atoms: _75  and  _77
REMARK   29  A    between atoms: _77  and  _78
REMARK   30  A    between atoms: _81  and  _83
REMARK   31  A    between atoms: _83  and  _84
REMARK   32  A    between atoms: _83  and  _86
REMARK   33  A    between atoms: _86  and  _87
REMARK   34  A    between atoms: _93  and  _95
REMARK   35  A    between atoms: _95  and  _96
REMARK   36  A    between atoms: _95  and  _98
REMARK   37  A    between atoms: _98  and  _99
REMARK   38  A    between atoms: _104  and  _106
REMARK   39  A    between atoms: _106  and  _107
REMARK   40  A    between atoms: _106  and  _109
REMARK   41  A    between atoms: _112  and  _114
REMARK   42  A    between atoms: _114  and  _115
REMARK   43  A    between atoms: _114  and  _117
REMARK   44  A    between atoms: _117  and  _118
REMARK   45  A    between atoms: _121  and  _123
REMARK   46  A    between atoms: _123  and  _124
REMARK   47  A    between atoms: _123  and  _126
REMARK   48  A    between atoms: _126  and  _127
REMARK   49  A    between atoms: _127  and  _128
REMARK   50  A    between atoms: _133  and  _135
REMARK   51  A    between atoms: _135  and  _136
REMARK   52  A    between atoms: _135  and  _138
REMARK   53  A    between atoms: _138  and  _139
REMARK   54  A    between atoms: _145  and  _147
REMARK   55  A    between atoms: _158  and  _161
REMARK   56  A    between atoms: _161  and  _162
REMARK   57  A    between atoms: _170  and  _171
REMARK   58  A    between atoms: _179  and  _181
REMARK   59  A    between atoms: _181  and  _182
REMARK   60  A    between atoms: _181  and  _184
REMARK   61  A    between atoms: _184  and  _185
REMARK   62  A    between atoms: _185  and  _186
REMARK   63  A    between atoms: _189  and  _191
REMARK   64  A    between atoms: _191  and  _192
REMARK   65  A    between atoms: _191  and  _194
REMARK   66  A    between atoms: _194  and  _195
REMARK   67  A    between atoms: _195  and  _196
REMARK   68  A    between atoms: _199  and  _201
REMARK   69  A    between atoms: _201  and  _202
REMARK   70  A    between atoms: _201  and  _204
REMARK   71  A    between atoms: _204  and  _205
REMARK   72  A    between atoms: _208  and  _210
REMARK   73  A    between atoms: _210  and  _211
REMARK   74  A    between atoms: _210  and  _213
REMARK   75  A    between atoms: _213  and  _214
REMARK   76  A    between atoms: _215  and  ZN_425
REMARK   77  A    between atoms: _219  and  _221
REMARK   78  A    between atoms: _221  and  _222
REMARK   79  A    between atoms: _221  and  _224
REMARK   80  A    between atoms: _224  and  _225
REMARK   81  A    between atoms: _228  and  _230
REMARK   82  A    between atoms: _230  and  _231
REMARK   83  A    between atoms: _230  and  _233
REMARK   84  A    between atoms: _236  and  _238
REMARK   85  A    between atoms: _238  and  _239
REMARK   86  A    between atoms: _238  and  _241
REMARK   87  A    between atoms: _241  and  _242
REMARK   88  A    between atoms: _247  and  _249
REMARK   89  A    between atoms: _249  and  _250
REMARK   90  A    between atoms: _249  and  _252
REMARK   91  A    between atoms: _252  and  _253
REMARK   92  A    between atoms: _259  and  _261
REMARK   93  A    between atoms: _261  and  _262
REMARK   94  A    between atoms: _261  and  _264
REMARK   95  A    between atoms: _267  and  _269
REMARK   96  A    between atoms: _269  and  _270
REMARK   97  A    between atoms: _269  and  _272
REMARK   98  A    between atoms: _272  and  _273
REMARK   99  A    between atoms: _276  and  _278
REMARK  100  A    between atoms: _278  and  _279
REMARK  101  A    between atoms: _282  and  _284
REMARK  102  A    between atoms: _284  and  _285
REMARK  103  A    between atoms: _284  and  _287
REMARK  104  A    between atoms: _290  and  _292
REMARK  105  A    between atoms: _292  and  _293
REMARK  106  A    between atoms: _292  and  _295
REMARK  107  A    between atoms: _295  and  _296
REMARK  108  A    between atoms: _299  and  _301
REMARK  109  A    between atoms: _301  and  _302
REMARK  110  A    between atoms: _301  and  _304
REMARK  111  A    between atoms: _304  and  _305
REMARK  112  A    between atoms: _307  and  _309
REMARK  113  A    between atoms: _309  and  _310
REMARK  114  A    between atoms: _309  and  _312
REMARK  115  A    between atoms: _312  and  _313
REMARK  116  A    between atoms: _316  and  _318
REMARK  117  A    between atoms: _318  and  _319
REMARK  118  A    between atoms: _318  and  _321
REMARK  119  A    between atoms: _321  and  _322
REMARK  120  A    between atoms: _325  and  _327
REMARK  121  A    between atoms: _327  and  _328
REMARK  122  A    between atoms: _327  and  _330
REMARK  123  A    between atoms: _330  and  _331
REMARK  124  A    between atoms: _335  and  _336
REMARK  125  A    between atoms: _342  and  _343
REMARK  126  A    between atoms: _348  and  _350
REMARK  127  A    between atoms: _350  and  _351
REMARK  128  A    between atoms: _350  and  _353
REMARK  129  A    between atoms: _353  and  _354
REMARK  130  A    between atoms: _357  and  _359
REMARK  131  A    between atoms: _359  and  _360
REMARK  132  A    between atoms: _359  and  _362
REMARK  133  A    between atoms: _362  and  _363
REMARK  134  A    between atoms: _366  and  _368
REMARK  135  A    between atoms: _368  and  _369
REMARK  136  A    between atoms: _368  and  _371
REMARK  137  A    between atoms: _373  and  _375
REMARK  138  A    between atoms: _375  and  _376
REMARK  139  A    between atoms: _375  and  _378
REMARK  140  A    between atoms: _381  and  _383
REMARK  141  A    between atoms: _383  and  _384
REMARK  142  A    between atoms: _383  and  _386
REMARK  143  A    between atoms: _386  and  _387
REMARK  144  A    between atoms: _397  and  _399
REMARK  145  A    between atoms: _399  and  _400
REMARK  146  A    between atoms: _399  and  _402
REMARK  147  A    between atoms: _402  and  _403
REMARK  148  A    between atoms: _408  and  _410
REMARK  149  A    between atoms: _410  and  _411
REMARK  150  A    between atoms: _410  and  _413
REMARK  151  A    between atoms: _413  and  _414
REMARK  152  A    between atoms: _414  and  _415
REMARK  153  A    between atoms: _415  and  _416
REMARK                            x       y       z     vdW  Elec       q    Type
REMARK                         _______ _______ _______ _____ _____    ______ ____
ROOT
ATOM      1  O   HOH     1      -0.851   4.065  13.411  0.00  0.00    +0.000 OA
ENDROOT
TORSDOF 0
REMARK  Name = ../refined-set-2016/3p58/3p58_pocket.pdb
REMARK  153 active torsions:
REMARK  status: ('A' for Active; 'I' for Inactive)
REMARK    1  A    between atoms: _1  and  _3
REMARK    2  A    between atoms: _3  and  _4
REMARK    3  A    between atoms: _3  and  _6
REMARK    4  A    between atoms: _6  and  _7
REMARK    5  A    between atoms: _17  and  _19
REMARK    6  A    between atoms: _19  and  _20
REMARK    7  A    between atoms: _19  and  _22
REMARK    8  A    between atoms: _22  and  _23
REMARK    9  A    between atoms: _28  and  _29
REMARK   10  A    between atoms: _31  and  _33
REMARK   11  A    between atoms: _33  and  _34
REMARK   12  A    between atoms: _33  and  _36
REMARK   13  A    between atoms: _36  and  _37
REMARK   14  A    between atoms: _39  and  _41
REMARK   15  A    between atoms: _41  and  _42
REMARK   16  A    between atoms: _41  and  _44
REMARK   17  A    between atoms: _44  and  _45
REMARK   18  A    between atoms: _48  and  _50
REMARK   19  A    between atoms: _50  and  _51
REMARK   20  A    between atoms: _50  and  _53
REMARK   21  A    between atoms: _53  and  _54
REMARK   22  A    between atoms: _59  and  _61
REMARK   23  A    between atoms: _61  and  _62
REMARK   24  A    between atoms: _64  and  _66
REMARK   25  A    between atoms: _66  and  _67
REMARK   26  A    between atoms: _66  and  _69
REMARK   27  A    between atoms: _69  and  _70
REMARK   28  A    between atoms: _75  and  _77
REMARK   29  A    between atoms: _77  and  _78
REMARK   30  A    between atoms: _81  and  _83
REMARK   31  A    between atoms: _83  and  _84
REMARK   32  A    between atoms: _83  and  _86
REMARK   33  A    between atoms: _86  and  _87
REMARK   34  A    between atoms: _93  and  _95
REMARK   35  A    between atoms: _95  and  _96
REMARK   36  A    between atoms: _95  and  _98
REMARK   37  A    between atoms: _98  and  _99
REMARK   38  A    between atoms: _104  and  _106
REMARK   39  A    between atoms: _106  and  _107
REMARK   40  A    between atoms: _106  and  _109
REMARK   41  A    between atoms: _112  and  _114
REMARK   42  A    between atoms: _114  and  _115
REMARK   43  A    between atoms: _114  and  _117
REMARK   44  A    between atoms: _117  and  _118
REMARK   45  A    between atoms: _121  and  _123
REMARK   46  A    between atoms: _123  and  _124
REMARK   47  A    between atoms: _123  and  _126
REMARK   48  A    between atoms: _126  and  _127
REMARK   49  A    between atoms: _127  and  _128
REMARK   50  A    between atoms: _133  and  _135
REMARK   51  A    between atoms: _135  and  _136
REMARK   52  A    between atoms: _135  and  _138
REMARK   53  A    between atoms: _138  and  _139
REMARK   54  A    between atoms: _145  and  _147
REMARK   55  A    between atoms: _158  and  _161
REMARK   56  A    between atoms: _161  and  _162
REMARK   57  A    between atoms: _170  and  _171
REMARK   58  A    between atoms: _179  and  _181
REMARK   59  A    between atoms: _181  and  _182
REMARK   60  A    between atoms: _181  and  _184
REMARK   61  A    between atoms: _184  and  _185
REMARK   62  A    between atoms: _185  and  _186
REMARK   63  A    between atoms: _189  and  _191
REMARK   64  A    between atoms: _191  and  _192
REMARK   65  A    between atoms: _191  and  _194
REMARK   66  A    between atoms: _194  and  _195
REMARK   67  A    between atoms: _195  and  _196
REMARK   68  A    between atoms: _199  and  _201
REMARK   69  A    between atoms: _201  and  _202
REMARK   70  A    between atoms: _201  and  _204
REMARK   71  A    between atoms: _204  and  _205
REMARK   72  A    between atoms: _208  and  _210
REMARK   73  A    between atoms: _210  and  _211
REMARK   74  A    between atoms: _210  and  _213
REMARK   75  A    between atoms: _213  and  _214
REMARK   76  A    between atoms: _215  and  ZN_425
REMARK   77  A    between atoms: _219  and  _221
REMARK   78  A    between atoms: _221  and  _222
REMARK   79  A    between atoms: _221  and  _224
REMARK   80  A    between atoms: _224  and  _225
REMARK   81  A    between atoms: _228  and  _230
REMARK   82  A    between atoms: _230  and  _231
REMARK   83  A    between atoms: _230  and  _233
REMARK   84  A    between atoms: _236  and  _238
REMARK   85  A    between atoms: _238  and  _239
REMARK   86  A    between atoms: _238  and  _241
REMARK   87  A    between atoms: _241  and  _242
REMARK   88  A    between atoms: _247  and  _249
REMARK   89  A    between atoms: _249  and  _250
REMARK   90  A    between atoms: _249  and  _252
REMARK   91  A    between atoms: _252  and  _253
REMARK   92  A    between atoms: _259  and  _261
REMARK   93  A    between atoms: _261  and  _262
REMARK   94  A    between atoms: _261  and  _264
REMARK   95  A    between atoms: _267  and  _269
REMARK   96  A    between atoms: _269  and  _270
REMARK   97  A    between atoms: _269  and  _272
REMARK   98  A    between atoms: _272  and  _273
REMARK   99  A    between atoms: _276  and  _278
REMARK  100  A    between atoms: _278  and  _279
REMARK  101  A    between atoms: _282  and  _284
REMARK  102  A    between atoms: _284  and  _285
REMARK  103  A    between atoms: _284  and  _287
REMARK  104  A    between atoms: _290  and  _292
REMARK  105  A    between atoms: _292  and  _293
REMARK  106  A    between atoms: _292  and  _295
REMARK  107  A    between atoms: _295  and  _296
REMARK  108  A    between atoms: _299  and  _301
REMARK  109  A    between atoms: _301  and  _302
REMARK  110  A    between atoms: _301  and  _304
REMARK  111  A    between atoms: _304  and  _305
REMARK  112  A    between atoms: _307  and  _309
REMARK  113  A    between atoms: _309  and  _310
REMARK  114  A    between atoms: _309  and  _312
REMARK  115  A    between atoms: _312  and  _313
REMARK  116  A    between atoms: _316  and  _318
REMARK  117  A    between atoms: _318  and  _319
REMARK  118  A    between atoms: _318  and  _321
REMARK  119  A    between atoms: _321  and  _322
REMARK  120  A    between atoms: _325  and  _327
REMARK  121  A    between atoms: _327  and  _328
REMARK  122  A    between atoms: _327  and  _330
REMARK  123  A    between atoms: _330  and  _331
REMARK  124  A    between atoms: _335  and  _336
REMARK  125  A    between atoms: _342  and  _343
REMARK  126  A    between atoms: _348  and  _350
REMARK  127  A    between atoms: _350  and  _351
REMARK  128  A    between atoms: _350  and  _353
REMARK  129  A    between atoms: _353  and  _354
REMARK  130  A    between atoms: _357  and  _359
REMARK  131  A    between atoms: _359  and  _360
REMARK  132  A    between atoms: _359  and  _362
REMARK  133  A    between atoms: _362  and  _363
REMARK  134  A    between atoms: _366  and  _368
REMARK  135  A    between atoms: _368  and  _369
REMARK  136  A    between atoms: _368  and  _371
REMARK  137  A    between atoms: _373  and  _375
REMARK  138  A    between atoms: _375  and  _376
REMARK  139  A    between atoms: _375  and  _378
REMARK  140  A    between atoms: _381  and  _383
REMARK  141  A    between atoms: _383  and  _384
REMARK  142  A    between atoms: _383  and  _386
REMARK  143  A    between atoms: _386  and  _387
REMARK  144  A    between atoms: _397  and  _399
REMARK  145  A    between atoms: _399  and  _400
REMARK  146  A    between atoms: _399  and  _402
REMARK  147  A    between atoms: _402  and  _403
REMARK  148  A    between atoms: _408  and  _410
REMARK  149  A    between atoms: _410  and  _411
REMARK  150  A    between atoms: _410  and  _413
REMARK  151  A    between atoms: _413  and  _414
REMARK  152  A    between atoms: _414  and  _415
REMARK  153  A    between atoms: _415  and  _416
REMARK                            x       y       z     vdW  Elec       q    Type
REMARK                         _______ _______ _______ _____ _____    ______ ____
ROOT
ATOM      1  O   HOH     1      -8.130   7.866   8.544  0.00  0.00    +0.000 OA
ENDROOT
TORSDOF 0
