REMARK  Name = ../refined-set-2016/3o7u/3o7u_pocket.pdb
REMARK  141 active torsions:
REMARK  status: ('A' for Active; 'I' for Inactive)
REMARK    1  A    between atoms: _1  and  _3
REMARK    2  A    between atoms: _14  and  _17
REMARK    3  A    between atoms: _17  and  _18
REMARK    4  A    between atoms: _23  and  _24
REMARK    5  A    between atoms: _32  and  _34
REMARK    6  A    between atoms: _34  and  _35
REMARK    7  A    between atoms: _34  and  _37
REMARK    8  A    between atoms: _37  and  _38
REMARK    9  A    between atoms: _41  and  _43
REMARK   10  A    between atoms: _43  and  _44
REMARK   11  A    between atoms: _43  and  _46
REMARK   12  A    between atoms: _46  and  _47
REMARK   13  A    between atoms: _50  and  _52
REMARK   14  A    between atoms: _52  and  _53
REMARK   15  A    between atoms: _52  and  _55
REMARK   16  A    between atoms: _55  and  _56
REMARK   17  A    between atoms: _59  and  _61
REMARK   18  A    between atoms: _61  and  _62
REMARK   19  A    between atoms: _61  and  _64
REMARK   20  A    between atoms: _64  and  _65
REMARK   21  A    between atoms: _68  and  _70
REMARK   22  A    between atoms: _70  and  _71
REMARK   23  A    between atoms: _70  and  _73
REMARK   24  A    between atoms: _73  and  _74
REMARK   25  A    between atoms: _80  and  _82
REMARK   26  A    between atoms: _82  and  _83
REMARK   27  A    between atoms: _85  and  _87
REMARK   28  A    between atoms: _87  and  _88
REMARK   29  A    between atoms: _87  and  _90
REMARK   30  A    between atoms: _90  and  _91
REMARK   31  A    between atoms: _94  and  _96
REMARK   32  A    between atoms: _96  and  _97
REMARK   33  A    between atoms: _96  and  _99
REMARK   34  A    between atoms: _99  and  _100
REMARK   35  A    between atoms: _110  and  _112
REMARK   36  A    between atoms: _112  and  _113
REMARK   37  A    between atoms: _112  and  _115
REMARK   38  A    between atoms: _115  and  _116
REMARK   39  A    between atoms: _121  and  _123
REMARK   40  A    between atoms: _123  and  _124
REMARK   41  A    between atoms: _123  and  _126
REMARK   42  A    between atoms: _126  and  _127
REMARK   43  A    between atoms: _130  and  _132
REMARK   44  A    between atoms: _132  and  _133
REMARK   45  A    between atoms: _132  and  _135
REMARK   46  A    between atoms: _135  and  _136
REMARK   47  A    between atoms: _143  and  _144
REMARK   48  A    between atoms: _149  and  _151
REMARK   49  A    between atoms: _151  and  _152
REMARK   50  A    between atoms: _151  and  _154
REMARK   51  A    between atoms: _154  and  _155
REMARK   52  A    between atoms: _155  and  _156
REMARK   53  A    between atoms: _161  and  _163
REMARK   54  A    between atoms: _163  and  _164
REMARK   55  A    between atoms: _163  and  _166
REMARK   56  A    between atoms: _166  and  _167
REMARK   57  A    between atoms: _167  and  _168
REMARK   58  A    between atoms: _171  and  _173
REMARK   59  A    between atoms: _173  and  _174
REMARK   60  A    between atoms: _177  and  _179
REMARK   61  A    between atoms: _179  and  _180
REMARK   62  A    between atoms: _179  and  _182
REMARK   63  A    between atoms: _182  and  _183
REMARK   64  A    between atoms: _186  and  _188
REMARK   65  A    between atoms: _188  and  _189
REMARK   66  A    between atoms: _188  and  _191
REMARK   67  A    between atoms: _191  and  _192
REMARK   68  A    between atoms: _197  and  _199
REMARK   69  A    between atoms: _199  and  _200
REMARK   70  A    between atoms: _199  and  _202
REMARK   71  A    between atoms: _202  and  _203
REMARK   72  A    between atoms: _209  and  _211
REMARK   73  A    between atoms: _211  and  _212
REMARK   74  A    between atoms: _211  and  _214
REMARK   75  A    between atoms: _214  and  _215
REMARK   76  A    between atoms: _219  and  ZN_390
REMARK   77  A    between atoms: _220  and  _222
REMARK   78  A    between atoms: _222  and  _223
REMARK   79  A    between atoms: _222  and  _225
REMARK   80  A    between atoms: _227  and  _229
REMARK   81  A    between atoms: _229  and  _230
REMARK   82  A    between atoms: _229  and  _232
REMARK   83  A    between atoms: _232  and  _233
REMARK   84  A    between atoms: _233  and  _234
REMARK   85  A    between atoms: _237  and  _239
REMARK   86  A    between atoms: _239  and  _240
REMARK   87  A    between atoms: _239  and  _242
REMARK   88  A    between atoms: _242  and  _243
REMARK   89  A    between atoms: _245  and  _247
REMARK   90  A    between atoms: _247  and  _248
REMARK   91  A    between atoms: _247  and  _250
REMARK   92  A    between atoms: _250  and  _251
REMARK   93  A    between atoms: _256  and  _258
REMARK   94  A    between atoms: _258  and  _259
REMARK   95  A    between atoms: _258  and  _261
REMARK   96  A    between atoms: _261  and  _262
REMARK   97  A    between atoms: _267  and  _269
REMARK   98  A    between atoms: _269  and  _270
REMARK   99  A    between atoms: _269  and  _272
REMARK  100  A    between atoms: _275  and  _277
REMARK  101  A    between atoms: _277  and  _278
REMARK  102  A    between atoms: _277  and  _280
REMARK  103  A    between atoms: _280  and  _281
REMARK  104  A    between atoms: _286  and  _288
REMARK  105  A    between atoms: _288  and  _289
REMARK  106  A    between atoms: _288  and  _291
REMARK  107  A    between atoms: _291  and  _292
REMARK  108  A    between atoms: _295  and  _297
REMARK  109  A    between atoms: _297  and  _298
REMARK  110  A    between atoms: _297  and  _300
REMARK  111  A    between atoms: _300  and  _301
REMARK  112  A    between atoms: _301  and  _302
REMARK  113  A    between atoms: _307  and  _309
REMARK  114  A    between atoms: _309  and  _310
REMARK  115  A    between atoms: _309  and  _312
REMARK  116  A    between atoms: _312  and  _313
REMARK  117  A    between atoms: _318  and  _320
REMARK  118  A    between atoms: _320  and  _321
REMARK  119  A    between atoms: _320  and  _323
REMARK  120  A    between atoms: _323  and  _324
REMARK  121  A    between atoms: _327  and  _329
REMARK  122  A    between atoms: _329  and  _330
REMARK  123  A    between atoms: _329  and  _332
REMARK  124  A    between atoms: _332  and  _333
REMARK  125  A    between atoms: _336  and  _338
REMARK  126  A    between atoms: _338  and  _339
REMARK  127  A    between atoms: _338  and  _341
REMARK  128  A    between atoms: _344  and  _346
REMARK  129  A    between atoms: _346  and  _347
REMARK  130  A    between atoms: _346  and  _349
REMARK  131  A    between atoms: _349  and  _350
REMARK  132  A    between atoms: _354  and  _355
REMARK  133  A    between atoms: _360  and  _362
REMARK  134  A    between atoms: _362  and  _363
REMARK  135  A    between atoms: _362  and  _365
REMARK  136  A    between atoms: _365  and  _366
REMARK  137  A    between atoms: _376  and  _378
REMARK  138  A    between atoms: _378  and  _379
REMARK  139  A    between atoms: _378  and  _381
REMARK  140  A    between atoms: _381  and  _382
REMARK  141  A    between atoms: _387  and  _388
REMARK                            x       y       z     vdW  Elec       q    Type
REMARK                         _______ _______ _______ _____ _____    ______ ____
ROOT
ATOM      1  C   UNK A   1     -57.960  17.212 -15.069  0.00  0.00    +0.000 C 
ATOM      2  C   UNK A   1     -58.371  18.548 -15.713  0.00  0.00    +0.000 C 
ATOM      3  C   UNK A   1     -59.782  18.958 -15.423  0.00  0.00    +0.000 A 
ATOM      4  N   UNK A   1     -60.096  20.148 -14.801  0.00  0.00    +0.000 NA
ATOM      5  C   UNK A   1     -61.407  20.254 -14.694  0.00  0.00    +0.000 A 
ATOM      6  N   UNK A   1     -61.955  19.174 -15.222  0.00  0.00    +0.000 N 
ATOM      7 ZN   UNK A   1     -64.007  18.680 -15.202  0.00  0.00    +0.000 Zn
ATOM      8  N   UNK A   1     -64.565  16.900 -14.360  0.00  0.00    +0.000 N 
ATOM      9  C   UNK A   1     -65.292  16.643 -13.288  0.00  0.00    +0.000 A 
ATOM     10  N   UNK A   1     -65.393  15.333 -13.163  0.00  0.00    +0.000 NA
ATOM     11  C   UNK A   1     -64.707  14.719 -14.191  0.00  0.00    +0.000 A 
ATOM     12  C   UNK A   1     -64.615  13.230 -14.327  0.00  0.00    +0.000 C 
ATOM     13  C   UNK A   1     -63.272  12.660 -13.866  0.00  0.00    +0.000 C 
ATOM     14  N   UNK A   3     -62.200  13.057 -14.776  0.00  0.00    +0.000 N 
ATOM     15  C   ILE A   2     -61.142  13.737 -14.351  0.00  0.00    +0.000 C 
ATOM     16  O   ILE A   2     -61.027  14.127 -13.194  0.00  0.00    +0.000 OA
ATOM     17  CA  ILE A   2     -60.065  14.059 -15.386  0.00  0.00    +0.000 C 
ATOM     18  N   ILE A   2     -59.244  15.150 -14.891  0.00  0.00    +0.000 N 
ATOM     19  H   ILE A   2     -59.052  15.220 -13.871  0.00  0.00    +0.000 HD
ATOM     20  H   UNK A   3     -62.267  12.801 -15.782  0.00  0.00    +0.000 HD
ATOM     21  C   UNK A   1     -64.186  15.716 -14.944  0.00  0.00    +0.000 A 
ATOM     22  C   UNK A   1     -60.961  18.347 -15.686  0.00  0.00    +0.000 A 
ATOM     23  C   UNK A   1     -58.732  16.062 -15.714  0.00  0.00    +0.000 C 
ATOM     24  O   UNK A   1     -58.859  15.993 -16.928  0.00  0.00    +0.000 OA
ENDROOT
BRANCH   7  25
ATOM     25  N   UNK A   1     -64.558  20.105 -13.738  0.00  0.00    +0.000 N 
ATOM     26  C   UNK A   1     -64.035  20.153 -12.521  0.00  0.00    +0.000 A 
ATOM     27  N   UNK A   1     -64.303  21.336 -11.997  0.00  0.00    +0.000 NA
ATOM     28  C   UNK A   1     -65.046  22.074 -12.895  0.00  0.00    +0.000 A 
ATOM     29  C   UNK A   1     -65.198  21.297 -13.991  0.00  0.00    +0.000 A 
BRANCH  28  30
ATOM     30  C   UNK A   1     -65.508  23.467 -12.601  0.00  0.00    +0.000 C 
BRANCH  30  31
ATOM     31  C   UNK A   1     -64.361  24.487 -12.510  0.00  0.00    +0.000 C 
BRANCH  31  32
ATOM     32  C   UNK A   1     -64.911  25.888 -12.713  0.00  0.00    +0.000 C 
ATOM     33  O   UNK A   1     -65.976  26.219 -12.201  0.00  0.00    +0.000 OA
ATOM     34  N   ILE A   2     -64.184  26.714 -13.453  0.00  0.00    +0.000 N 
ATOM     35  H   ILE A   2     -63.451  26.328 -14.082  0.00  0.00    +0.000 HD
BRANCH  34  36
ATOM     36  CA  ILE A   2     -64.396  28.150 -13.399  0.00  0.00    +0.000 C 
BRANCH  36  37
ATOM     37  CB  ILE A   2     -63.070  28.804 -13.007  0.00  0.00    +0.000 C 
ATOM     38  SG  ILE A   2     -63.204  30.514 -12.466  0.00  0.00    +0.000 S 
ENDBRANCH  36  37
BRANCH  36  39
ATOM     39  C   ILE A   2     -64.871  28.732 -14.734  0.00  0.00    +0.000 C 
ATOM     40  O   ILE A   2     -64.122  28.727 -15.702  0.00  0.00    +0.000 OA
ENDBRANCH  36  39
ENDBRANCH  34  36
ENDBRANCH  31  32
BRANCH  31  41
ATOM     41  N   UNK A   1     -63.732  24.476 -11.174  0.00  0.00    +0.000 NA
ATOM     42  H   UNK A   1     -64.192  23.957 -10.399  0.00  0.00    +0.000 HD
ENDBRANCH  31  41
ENDBRANCH  30  31
ENDBRANCH  28  30
ENDBRANCH   7  25
BRANCH   1  43
ATOM     43  N   UNK A   1     -56.506  17.057 -15.165  0.00  0.00    +0.000 NA
ATOM     44  H   UNK A   1     -56.100  16.442 -15.899  0.00  0.00    +0.000 HD
ENDBRANCH   1  43
BRANCH  13  45
ATOM     45  C   UNK A   1     -63.334  11.139 -13.812  0.00  0.00    +0.000 C 
ATOM     46  O   UNK A   3     -64.007  10.511 -14.620  0.00  0.00    +0.000 OA
ENDBRANCH  13  45
BRANCH  17  47
ATOM     47  CB  ILE A   2     -59.206  12.804 -15.678  0.00  0.00    +0.000 C 
ATOM     48  CG2 ILE A   2     -58.667  12.204 -14.374  0.00  0.00    +0.000 C 
BRANCH  47  49
ATOM     49  CG1 ILE A   2     -60.004  11.764 -16.462  0.00  0.00    +0.000 C 
ATOM     50  CD1 ILE A   2     -59.116  10.747 -17.163  0.00  0.00    +0.000 C 
ENDBRANCH  47  49
ENDBRANCH  17  47
TORSDOF 12
REMARK  Name = ../refined-set-2016/3o7u/3o7u_pocket.pdb
REMARK  141 active torsions:
REMARK  status: ('A' for Active; 'I' for Inactive)
REMARK    1  A    between atoms: _1  and  _3
REMARK    2  A    between atoms: _14  and  _17
REMARK    3  A    between atoms: _17  and  _18
REMARK    4  A    between atoms: _23  and  _24
REMARK    5  A    between atoms: _32  and  _34
REMARK    6  A    between atoms: _34  and  _35
REMARK    7  A    between atoms: _34  and  _37
REMARK    8  A    between atoms: _37  and  _38
REMARK    9  A    between atoms: _41  and  _43
REMARK   10  A    between atoms: _43  and  _44
REMARK   11  A    between atoms: _43  and  _46
REMARK   12  A    between atoms: _46  and  _47
REMARK   13  A    between atoms: _50  and  _52
REMARK   14  A    between atoms: _52  and  _53
REMARK   15  A    between atoms: _52  and  _55
REMARK   16  A    between atoms: _55  and  _56
REMARK   17  A    between atoms: _59  and  _61
REMARK   18  A    between atoms: _61  and  _62
REMARK   19  A    between atoms: _61  and  _64
REMARK   20  A    between atoms: _64  and  _65
REMARK   21  A    between atoms: _68  and  _70
REMARK   22  A    between atoms: _70  and  _71
REMARK   23  A    between atoms: _70  and  _73
REMARK   24  A    between atoms: _73  and  _74
REMARK   25  A    between atoms: _80  and  _82
REMARK   26  A    between atoms: _82  and  _83
REMARK   27  A    between atoms: _85  and  _87
REMARK   28  A    between atoms: _87  and  _88
REMARK   29  A    between atoms: _87  and  _90
REMARK   30  A    between atoms: _90  and  _91
REMARK   31  A    between atoms: _94  and  _96
REMARK   32  A    between atoms: _96  and  _97
REMARK   33  A    between atoms: _96  and  _99
REMARK   34  A    between atoms: _99  and  _100
REMARK   35  A    between atoms: _110  and  _112
REMARK   36  A    between atoms: _112  and  _113
REMARK   37  A    between atoms: _112  and  _115
REMARK   38  A    between atoms: _115  and  _116
REMARK   39  A    between atoms: _121  and  _123
REMARK   40  A    between atoms: _123  and  _124
REMARK   41  A    between atoms: _123  and  _126
REMARK   42  A    between atoms: _126  and  _127
REMARK   43  A    between atoms: _130  and  _132
REMARK   44  A    between atoms: _132  and  _133
REMARK   45  A    between atoms: _132  and  _135
REMARK   46  A    between atoms: _135  and  _136
REMARK   47  A    between atoms: _143  and  _144
REMARK   48  A    between atoms: _149  and  _151
REMARK   49  A    between atoms: _151  and  _152
REMARK   50  A    between atoms: _151  and  _154
REMARK   51  A    between atoms: _154  and  _155
REMARK   52  A    between atoms: _155  and  _156
REMARK   53  A    between atoms: _161  and  _163
REMARK   54  A    between atoms: _163  and  _164
REMARK   55  A    between atoms: _163  and  _166
REMARK   56  A    between atoms: _166  and  _167
REMARK   57  A    between atoms: _167  and  _168
REMARK   58  A    between atoms: _171  and  _173
REMARK   59  A    between atoms: _173  and  _174
REMARK   60  A    between atoms: _177  and  _179
REMARK   61  A    between atoms: _179  and  _180
REMARK   62  A    between atoms: _179  and  _182
REMARK   63  A    between atoms: _182  and  _183
REMARK   64  A    between atoms: _186  and  _188
REMARK   65  A    between atoms: _188  and  _189
REMARK   66  A    between atoms: _188  and  _191
REMARK   67  A    between atoms: _191  and  _192
REMARK   68  A    between atoms: _197  and  _199
REMARK   69  A    between atoms: _199  and  _200
REMARK   70  A    between atoms: _199  and  _202
REMARK   71  A    between atoms: _202  and  _203
REMARK   72  A    between atoms: _209  and  _211
REMARK   73  A    between atoms: _211  and  _212
REMARK   74  A    between atoms: _211  and  _214
REMARK   75  A    between atoms: _214  and  _215
REMARK   76  A    between atoms: _219  and  ZN_390
REMARK   77  A    between atoms: _220  and  _222
REMARK   78  A    between atoms: _222  and  _223
REMARK   79  A    between atoms: _222  and  _225
REMARK   80  A    between atoms: _227  and  _229
REMARK   81  A    between atoms: _229  and  _230
REMARK   82  A    between atoms: _229  and  _232
REMARK   83  A    between atoms: _232  and  _233
REMARK   84  A    between atoms: _233  and  _234
REMARK   85  A    between atoms: _237  and  _239
REMARK   86  A    between atoms: _239  and  _240
REMARK   87  A    between atoms: _239  and  _242
REMARK   88  A    between atoms: _242  and  _243
REMARK   89  A    between atoms: _245  and  _247
REMARK   90  A    between atoms: _247  and  _248
REMARK   91  A    between atoms: _247  and  _250
REMARK   92  A    between atoms: _250  and  _251
REMARK   93  A    between atoms: _256  and  _258
REMARK   94  A    between atoms: _258  and  _259
REMARK   95  A    between atoms: _258  and  _261
REMARK   96  A    between atoms: _261  and  _262
REMARK   97  A    between atoms: _267  and  _269
REMARK   98  A    between atoms: _269  and  _270
REMARK   99  A    between atoms: _269  and  _272
REMARK  100  A    between atoms: _275  and  _277
REMARK  101  A    between atoms: _277  and  _278
REMARK  102  A    between atoms: _277  and  _280
REMARK  103  A    between atoms: _280  and  _281
REMARK  104  A    between atoms: _286  and  _288
REMARK  105  A    between atoms: _288  and  _289
REMARK  106  A    between atoms: _288  and  _291
REMARK  107  A    between atoms: _291  and  _292
REMARK  108  A    between atoms: _295  and  _297
REMARK  109  A    between atoms: _297  and  _298
REMARK  110  A    between atoms: _297  and  _300
REMARK  111  A    between atoms: _300  and  _301
REMARK  112  A    between atoms: _301  and  _302
REMARK  113  A    between atoms: _307  and  _309
REMARK  114  A    between atoms: _309  and  _310
REMARK  115  A    between atoms: _309  and  _312
REMARK  116  A    between atoms: _312  and  _313
REMARK  117  A    between atoms: _318  and  _320
REMARK  118  A    between atoms: _320  and  _321
REMARK  119  A    between atoms: _320  and  _323
REMARK  120  A    between atoms: _323  and  _324
REMARK  121  A    between atoms: _327  and  _329
REMARK  122  A    between atoms: _329  and  _330
REMARK  123  A    between atoms: _329  and  _332
REMARK  124  A    between atoms: _332  and  _333
REMARK  125  A    between atoms: _336  and  _338
REMARK  126  A    between atoms: _338  and  _339
REMARK  127  A    between atoms: _338  and  _341
REMARK  128  A    between atoms: _344  and  _346
REMARK  129  A    between atoms: _346  and  _347
REMARK  130  A    between atoms: _346  and  _349
REMARK  131  A    between atoms: _349  and  _350
REMARK  132  A    between atoms: _354  and  _355
REMARK  133  A    between atoms: _360  and  _362
REMARK  134  A    between atoms: _362  and  _363
REMARK  135  A    between atoms: _362  and  _365
REMARK  136  A    between atoms: _365  and  _366
REMARK  137  A    between atoms: _376  and  _378
REMARK  138  A    between atoms: _378  and  _379
REMARK  139  A    between atoms: _378  and  _381
REMARK  140  A    between atoms: _381  and  _382
REMARK  141  A    between atoms: _387  and  _388
REMARK                            x       y       z     vdW  Elec       q    Type
REMARK                         _______ _______ _______ _____ _____    ______ ____
ROOT
ATOM      1  C   ASP A   1     -66.989   8.599 -12.141  0.00  0.00    +0.239 C 
ATOM      2  O   ASP A   1     -67.933   7.832 -11.978  0.00  0.00    -0.274 OA
ATOM      3  N   THR A   2     -66.838   9.328 -13.248  0.00  0.00    -0.296 N 
ATOM      4  H   THR A   2     -65.990   9.920 -13.361  0.00  0.00    +0.150 HD
ENDROOT
BRANCH   1   5
ATOM      5  CA  ASP A   1     -65.907   8.726 -11.071  0.00  0.00    +0.156 C 
BRANCH   5   6
ATOM      6  N   ASP A   1     -64.649   9.262 -11.575  0.00  0.00    -0.238 NA
ATOM      7  H   ASP A   1     -64.387  10.251 -11.388  0.00  0.00    +0.142 HD
ENDBRANCH   5   6
BRANCH   5   8
ATOM      8  CB  ASP A   1     -66.411   9.482  -9.826  0.00  0.00    +0.140 C 
BRANCH   8   9
ATOM      9  CG  ASP A   1     -66.760  10.946 -10.104  0.00  0.00    +0.367 C 
ATOM     10  OD2 ASP A   1     -67.640  11.468  -9.390  0.00  0.00    -0.246 OA
ATOM     11  OD1 ASP A   1     -66.152  11.569 -11.002  0.00  0.00    -0.246 OA
ENDBRANCH   8   9
ENDBRANCH   5   8
ENDBRANCH   1   5
BRANCH   3  12
ATOM     12  CA  THR A   2     -67.846   9.306 -14.303  0.00  0.00    +0.164 C 
BRANCH  12  13
ATOM     13  CB  THR A   2     -68.210  10.751 -14.759  0.00  0.00    +0.136 C 
ATOM     14  CG2 THR A   2     -68.636  11.630 -13.562  0.00  0.00    +0.034 C 
BRANCH  13  15
ATOM     15  OG1 THR A   2     -67.069  11.350 -15.378  0.00  0.00    -0.382 OA
ATOM     16  HG1 THR A   2     -66.800  10.811 -16.164  0.00  0.00    +0.210 HD
ENDBRANCH  13  15
ENDBRANCH  12  13
BRANCH  12  17
ATOM     17  C   THR A   2     -67.374   8.497 -15.514  0.00  0.00    +0.229 C 
ATOM     18  O   THR A   2     -68.160   8.171 -16.403  0.00  0.00    -0.286 OA
ENDBRANCH  12  17
ENDBRANCH   3  12
TORSDOF 8
REMARK  Name = ../refined-set-2016/3o7u/3o7u_pocket.pdb
REMARK  141 active torsions:
REMARK  status: ('A' for Active; 'I' for Inactive)
REMARK    1  A    between atoms: _1  and  _3
REMARK    2  A    between atoms: _14  and  _17
REMARK    3  A    between atoms: _17  and  _18
REMARK    4  A    between atoms: _23  and  _24
REMARK    5  A    between atoms: _32  and  _34
REMARK    6  A    between atoms: _34  and  _35
REMARK    7  A    between atoms: _34  and  _37
REMARK    8  A    between atoms: _37  and  _38
REMARK    9  A    between atoms: _41  and  _43
REMARK   10  A    between atoms: _43  and  _44
REMARK   11  A    between atoms: _43  and  _46
REMARK   12  A    between atoms: _46  and  _47
REMARK   13  A    between atoms: _50  and  _52
REMARK   14  A    between atoms: _52  and  _53
REMARK   15  A    between atoms: _52  and  _55
REMARK   16  A    between atoms: _55  and  _56
REMARK   17  A    between atoms: _59  and  _61
REMARK   18  A    between atoms: _61  and  _62
REMARK   19  A    between atoms: _61  and  _64
REMARK   20  A    between atoms: _64  and  _65
REMARK   21  A    between atoms: _68  and  _70
REMARK   22  A    between atoms: _70  and  _71
REMARK   23  A    between atoms: _70  and  _73
REMARK   24  A    between atoms: _73  and  _74
REMARK   25  A    between atoms: _80  and  _82
REMARK   26  A    between atoms: _82  and  _83
REMARK   27  A    between atoms: _85  and  _87
REMARK   28  A    between atoms: _87  and  _88
REMARK   29  A    between atoms: _87  and  _90
REMARK   30  A    between atoms: _90  and  _91
REMARK   31  A    between atoms: _94  and  _96
REMARK   32  A    between atoms: _96  and  _97
REMARK   33  A    between atoms: _96  and  _99
REMARK   34  A    between atoms: _99  and  _100
REMARK   35  A    between atoms: _110  and  _112
REMARK   36  A    between atoms: _112  and  _113
REMARK   37  A    between atoms: _112  and  _115
REMARK   38  A    between atoms: _115  and  _116
REMARK   39  A    between atoms: _121  and  _123
REMARK   40  A    between atoms: _123  and  _124
REMARK   41  A    between atoms: _123  and  _126
REMARK   42  A    between atoms: _126  and  _127
REMARK   43  A    between atoms: _130  and  _132
REMARK   44  A    between atoms: _132  and  _133
REMARK   45  A    between atoms: _132  and  _135
REMARK   46  A    between atoms: _135  and  _136
REMARK   47  A    between atoms: _143  and  _144
REMARK   48  A    between atoms: _149  and  _151
REMARK   49  A    between atoms: _151  and  _152
REMARK   50  A    between atoms: _151  and  _154
REMARK   51  A    between atoms: _154  and  _155
REMARK   52  A    between atoms: _155  and  _156
REMARK   53  A    between atoms: _161  and  _163
REMARK   54  A    between atoms: _163  and  _164
REMARK   55  A    between atoms: _163  and  _166
REMARK   56  A    between atoms: _166  and  _167
REMARK   57  A    between atoms: _167  and  _168
REMARK   58  A    between atoms: _171  and  _173
REMARK   59  A    between atoms: _173  and  _174
REMARK   60  A    between atoms: _177  and  _179
REMARK   61  A    between atoms: _179  and  _180
REMARK   62  A    between atoms: _179  and  _182
REMARK   63  A    between atoms: _182  and  _183
REMARK   64  A    between atoms: _186  and  _188
REMARK   65  A    between atoms: _188  and  _189
REMARK   66  A    between atoms: _188  and  _191
REMARK   67  A    between atoms: _191  and  _192
REMARK   68  A    between atoms: _197  and  _199
REMARK   69  A    between atoms: _199  and  _200
REMARK   70  A    between atoms: _199  and  _202
REMARK   71  A    between atoms: _202  and  _203
REMARK   72  A    between atoms: _209  and  _211
REMARK   73  A    between atoms: _211  and  _212
REMARK   74  A    between atoms: _211  and  _214
REMARK   75  A    between atoms: _214  and  _215
REMARK   76  A    between atoms: _219  and  ZN_390
REMARK   77  A    between atoms: _220  and  _222
REMARK   78  A    between atoms: _222  and  _223
REMARK   79  A    between atoms: _222  and  _225
REMARK   80  A    between atoms: _227  and  _229
REMARK   81  A    between atoms: _229  and  _230
REMARK   82  A    between atoms: _229  and  _232
REMARK   83  A    between atoms: _232  and  _233
REMARK   84  A    between atoms: _233  and  _234
REMARK   85  A    between atoms: _237  and  _239
REMARK   86  A    between atoms: _239  and  _240
REMARK   87  A    between atoms: _239  and  _242
REMARK   88  A    between atoms: _242  and  _243
REMARK   89  A    between atoms: _245  and  _247
REMARK   90  A    between atoms: _247  and  _248
REMARK   91  A    between atoms: _247  and  _250
REMARK   92  A    between atoms: _250  and  _251
REMARK   93  A    between atoms: _256  and  _258
REMARK   94  A    between atoms: _258  and  _259
REMARK   95  A    between atoms: _258  and  _261
REMARK   96  A    between atoms: _261  and  _262
REMARK   97  A    between atoms: _267  and  _269
REMARK   98  A    between atoms: _269  and  _270
REMARK   99  A    between atoms: _269  and  _272
REMARK  100  A    between atoms: _275  and  _277
REMARK  101  A    between atoms: _277  and  _278
REMARK  102  A    between atoms: _277  and  _280
REMARK  103  A    between atoms: _280  and  _281
REMARK  104  A    between atoms: _286  and  _288
REMARK  105  A    between atoms: _288  and  _289
REMARK  106  A    between atoms: _288  and  _291
REMARK  107  A    between atoms: _291  and  _292
REMARK  108  A    between atoms: _295  and  _297
REMARK  109  A    between atoms: _297  and  _298
REMARK  110  A    between atoms: _297  and  _300
REMARK  111  A    between atoms: _300  and  _301
REMARK  112  A    between atoms: _301  and  _302
REMARK  113  A    between atoms: _307  and  _309
REMARK  114  A    between atoms: _309  and  _310
REMARK  115  A    between atoms: _309  and  _312
REMARK  116  A    between atoms: _312  and  _313
REMARK  117  A    between atoms: _318  and  _320
REMARK  118  A    between atoms: _320  and  _321
REMARK  119  A    between atoms: _320  and  _323
REMARK  120  A    between atoms: _323  and  _324
REMARK  121  A    between atoms: _327  and  _329
REMARK  122  A    between atoms: _329  and  _330
REMARK  123  A    between atoms: _329  and  _332
REMARK  124  A    between atoms: _332  and  _333
REMARK  125  A    between atoms: _336  and  _338
REMARK  126  A    between atoms: _338  and  _339
REMARK  127  A    between atoms: _338  and  _341
REMARK  128  A    between atoms: _344  and  _346
REMARK  129  A    between atoms: _346  and  _347
REMARK  130  A    between atoms: _346  and  _349
REMARK  131  A    between atoms: _349  and  _350
REMARK  132  A    between atoms: _354  and  _355
REMARK  133  A    between atoms: _360  and  _362
REMARK  134  A    between atoms: _362  and  _363
REMARK  135  A    between atoms: _362  and  _365
REMARK  136  A    between atoms: _365  and  _366
REMARK  137  A    between atoms: _376  and  _378
REMARK  138  A    between atoms: _378  and  _379
REMARK  139  A    between atoms: _378  and  _381
REMARK  140  A    between atoms: _381  and  _382
REMARK  141  A    between atoms: _387  and  _388
REMARK                            x       y       z     vdW  Elec       q    Type
REMARK                         _______ _______ _______ _____ _____    ______ ____
ROOT
ATOM      1  CA  LEU A   2     -72.449  20.830 -20.350  0.00  0.00    +0.149 C 
ENDROOT
BRANCH   1   3
ATOM      2  C   THR A   1     -73.554  20.054 -22.367  0.00  0.00    +0.241 C 
ATOM      3  N   LEU A   2     -72.848  20.985 -21.738  0.00  0.00    -0.297 N 
ATOM      4  H   LEU A   2     -72.574  21.847 -22.251  0.00  0.00    +0.150 HD
ATOM      5  O   THR A   1     -73.829  18.959 -21.865  0.00  0.00    -0.274 OA
BRANCH   2   6
ATOM      6  CA  THR A   1     -74.009  20.412 -23.775  0.00  0.00    +0.172 C 
BRANCH   6   7
ATOM      7  N   THR A   1     -74.297  19.231 -24.590  0.00  0.00    -0.236 NA
ATOM      8  H   THR A   1     -75.126  18.644 -24.368  0.00  0.00    +0.142 HD
ENDBRANCH   6   7
BRANCH   6   9
ATOM      9  CB  THR A   1     -75.224  21.350 -23.654  0.00  0.00    +0.135 C 
ATOM     10  CG2 THR A   1     -75.672  21.823 -25.038  0.00  0.00    +0.034 C 
BRANCH   9  11
ATOM     11  OG1 THR A   1     -76.301  20.658 -23.002  0.00  0.00    -0.383 OA
ATOM     12  HG1 THR A   1     -76.550  19.862 -23.535  0.00  0.00    +0.210 HD
ENDBRANCH   9  11
ENDBRANCH   6   9
ENDBRANCH   2   6
ENDBRANCH   1   3
BRANCH   1  13
ATOM     13  C   LEU A   2     -73.673  20.514 -19.485  0.00  0.00    +0.241 C 
ATOM     14  O   LEU A   2     -73.650  19.603 -18.625  0.00  0.00    -0.273 OA
ATOM     15  N   PHE A   3     -74.734  21.283 -19.713  0.00  0.00    -0.298 N 
ATOM     16  H   PHE A   3     -74.729  21.914 -20.540  0.00  0.00    +0.150 HD
BRANCH  15  17
ATOM     17  CA  PHE A   3     -75.908  21.271 -18.839  0.00  0.00    +0.141 C 
BRANCH  17  18
ATOM     18  C   PHE A   3     -76.700  19.970 -18.932  0.00  0.00    +0.227 C 
ATOM     19  O   PHE A   3     -77.133  19.433 -17.903  0.00  0.00    -0.286 OA
ENDBRANCH  17  18
BRANCH  17  20
ATOM     20  CB  PHE A   3     -76.792  22.487 -19.132  0.00  0.00    +0.054 C 
BRANCH  20  21
ATOM     21  CG  PHE A   3     -76.031  23.784 -19.116  0.00  0.00    -0.020 A 
ATOM     22  CD2 PHE A   3     -75.514  24.274 -17.934  0.00  0.00    -0.004 A 
ATOM     23  CE2 PHE A   3     -74.772  25.458 -17.908  0.00  0.00    -0.000 A 
ATOM     24  CZ  PHE A   3     -74.544  26.144 -19.086  0.00  0.00    -0.000 A 
ATOM     25  CE1 PHE A   3     -75.041  25.649 -20.290  0.00  0.00    -0.000 A 
ATOM     26  CD1 PHE A   3     -75.772  24.467 -20.300  0.00  0.00    -0.004 A 
ENDBRANCH  20  21
ENDBRANCH  17  20
ENDBRANCH  15  17
ENDBRANCH   1  13
BRANCH   1  27
ATOM     27  CB  LEU A   2     -71.809  22.126 -19.846  0.00  0.00    +0.029 C 
BRANCH  27  28
ATOM     28  CG  LEU A   2     -71.528  22.182 -18.340  0.00  0.00    +0.002 C 
ATOM     29  CD2 LEU A   2     -70.993  23.552 -17.918  0.00  0.00    +0.000 C 
ATOM     30  CD1 LEU A   2     -70.542  21.101 -17.941  0.00  0.00    +0.000 C 
ENDBRANCH  27  28
ENDBRANCH   1  27
TORSDOF 12
REMARK  Name = ../refined-set-2016/3o7u/3o7u_pocket.pdb
REMARK  141 active torsions:
REMARK  status: ('A' for Active; 'I' for Inactive)
REMARK    1  A    between atoms: _1  and  _3
REMARK    2  A    between atoms: _14  and  _17
REMARK    3  A    between atoms: _17  and  _18
REMARK    4  A    between atoms: _23  and  _24
REMARK    5  A    between atoms: _32  and  _34
REMARK    6  A    between atoms: _34  and  _35
REMARK    7  A    between atoms: _34  and  _37
REMARK    8  A    between atoms: _37  and  _38
REMARK    9  A    between atoms: _41  and  _43
REMARK   10  A    between atoms: _43  and  _44
REMARK   11  A    between atoms: _43  and  _46
REMARK   12  A    between atoms: _46  and  _47
REMARK   13  A    between atoms: _50  and  _52
REMARK   14  A    between atoms: _52  and  _53
REMARK   15  A    between atoms: _52  and  _55
REMARK   16  A    between atoms: _55  and  _56
REMARK   17  A    between atoms: _59  and  _61
REMARK   18  A    between atoms: _61  and  _62
REMARK   19  A    between atoms: _61  and  _64
REMARK   20  A    between atoms: _64  and  _65
REMARK   21  A    between atoms: _68  and  _70
REMARK   22  A    between atoms: _70  and  _71
REMARK   23  A    between atoms: _70  and  _73
REMARK   24  A    between atoms: _73  and  _74
REMARK   25  A    between atoms: _80  and  _82
REMARK   26  A    between atoms: _82  and  _83
REMARK   27  A    between atoms: _85  and  _87
REMARK   28  A    between atoms: _87  and  _88
REMARK   29  A    between atoms: _87  and  _90
REMARK   30  A    between atoms: _90  and  _91
REMARK   31  A    between atoms: _94  and  _96
REMARK   32  A    between atoms: _96  and  _97
REMARK   33  A    between atoms: _96  and  _99
REMARK   34  A    between atoms: _99  and  _100
REMARK   35  A    between atoms: _110  and  _112
REMARK   36  A    between atoms: _112  and  _113
REMARK   37  A    between atoms: _112  and  _115
REMARK   38  A    between atoms: _115  and  _116
REMARK   39  A    between atoms: _121  and  _123
REMARK   40  A    between atoms: _123  and  _124
REMARK   41  A    between atoms: _123  and  _126
REMARK   42  A    between atoms: _126  and  _127
REMARK   43  A    between atoms: _130  and  _132
REMARK   44  A    between atoms: _132  and  _133
REMARK   45  A    between atoms: _132  and  _135
REMARK   46  A    between atoms: _135  and  _136
REMARK   47  A    between atoms: _143  and  _144
REMARK   48  A    between atoms: _149  and  _151
REMARK   49  A    between atoms: _151  and  _152
REMARK   50  A    between atoms: _151  and  _154
REMARK   51  A    between atoms: _154  and  _155
REMARK   52  A    between atoms: _155  and  _156
REMARK   53  A    between atoms: _161  and  _163
REMARK   54  A    between atoms: _163  and  _164
REMARK   55  A    between atoms: _163  and  _166
REMARK   56  A    between atoms: _166  and  _167
REMARK   57  A    between atoms: _167  and  _168
REMARK   58  A    between atoms: _171  and  _173
REMARK   59  A    between atoms: _173  and  _174
REMARK   60  A    between atoms: _177  and  _179
REMARK   61  A    between atoms: _179  and  _180
REMARK   62  A    between atoms: _179  and  _182
REMARK   63  A    between atoms: _182  and  _183
REMARK   64  A    between atoms: _186  and  _188
REMARK   65  A    between atoms: _188  and  _189
REMARK   66  A    between atoms: _188  and  _191
REMARK   67  A    between atoms: _191  and  _192
REMARK   68  A    between atoms: _197  and  _199
REMARK   69  A    between atoms: _199  and  _200
REMARK   70  A    between atoms: _199  and  _202
REMARK   71  A    between atoms: _202  and  _203
REMARK   72  A    between atoms: _209  and  _211
REMARK   73  A    between atoms: _211  and  _212
REMARK   74  A    between atoms: _211  and  _214
REMARK   75  A    between atoms: _214  and  _215
REMARK   76  A    between atoms: _219  and  ZN_390
REMARK   77  A    between atoms: _220  and  _222
REMARK   78  A    between atoms: _222  and  _223
REMARK   79  A    between atoms: _222  and  _225
REMARK   80  A    between atoms: _227  and  _229
REMARK   81  A    between atoms: _229  and  _230
REMARK   82  A    between atoms: _229  and  _232
REMARK   83  A    between atoms: _232  and  _233
REMARK   84  A    between atoms: _233  and  _234
REMARK   85  A    between atoms: _237  and  _239
REMARK   86  A    between atoms: _239  and  _240
REMARK   87  A    between atoms: _239  and  _242
REMARK   88  A    between atoms: _242  and  _243
REMARK   89  A    between atoms: _245  and  _247
REMARK   90  A    between atoms: _247  and  _248
REMARK   91  A    between atoms: _247  and  _250
REMARK   92  A    between atoms: _250  and  _251
REMARK   93  A    between atoms: _256  and  _258
REMARK   94  A    between atoms: _258  and  _259
REMARK   95  A    between atoms: _258  and  _261
REMARK   96  A    between atoms: _261  and  _262
REMARK   97  A    between atoms: _267  and  _269
REMARK   98  A    between atoms: _269  and  _270
REMARK   99  A    between atoms: _269  and  _272
REMARK  100  A    between atoms: _275  and  _277
REMARK  101  A    between atoms: _277  and  _278
REMARK  102  A    between atoms: _277  and  _280
REMARK  103  A    between atoms: _280  and  _281
REMARK  104  A    between atoms: _286  and  _288
REMARK  105  A    between atoms: _288  and  _289
REMARK  106  A    between atoms: _288  and  _291
REMARK  107  A    between atoms: _291  and  _292
REMARK  108  A    between atoms: _295  and  _297
REMARK  109  A    between atoms: _297  and  _298
REMARK  110  A    between atoms: _297  and  _300
REMARK  111  A    between atoms: _300  and  _301
REMARK  112  A    between atoms: _301  and  _302
REMARK  113  A    between atoms: _307  and  _309
REMARK  114  A    between atoms: _309  and  _310
REMARK  115  A    between atoms: _309  and  _312
REMARK  116  A    between atoms: _312  and  _313
REMARK  117  A    between atoms: _318  and  _320
REMARK  118  A    between atoms: _320  and  _321
REMARK  119  A    between atoms: _320  and  _323
REMARK  120  A    between atoms: _323  and  _324
REMARK  121  A    between atoms: _327  and  _329
REMARK  122  A    between atoms: _329  and  _330
REMARK  123  A    between atoms: _329  and  _332
REMARK  124  A    between atoms: _332  and  _333
REMARK  125  A    between atoms: _336  and  _338
REMARK  126  A    between atoms: _338  and  _339
REMARK  127  A    between atoms: _338  and  _341
REMARK  128  A    between atoms: _344  and  _346
REMARK  129  A    between atoms: _346  and  _347
REMARK  130  A    between atoms: _346  and  _349
REMARK  131  A    between atoms: _349  and  _350
REMARK  132  A    between atoms: _354  and  _355
REMARK  133  A    between atoms: _360  and  _362
REMARK  134  A    between atoms: _362  and  _363
REMARK  135  A    between atoms: _362  and  _365
REMARK  136  A    between atoms: _365  and  _366
REMARK  137  A    between atoms: _376  and  _378
REMARK  138  A    between atoms: _378  and  _379
REMARK  139  A    between atoms: _378  and  _381
REMARK  140  A    between atoms: _381  and  _382
REMARK  141  A    between atoms: _387  and  _388
REMARK                            x       y       z     vdW  Elec       q    Type
REMARK                         _______ _______ _______ _____ _____    ______ ____
ROOT
ATOM      1  C   GLY A   1     -74.519  16.103 -17.846  0.00  0.00    +0.240 C 
ATOM      2  N   ILE A   2     -74.712  17.219 -17.152  0.00  0.00    -0.298 N 
ATOM      3  H   ILE A   2     -74.704  18.135 -17.645  0.00  0.00    +0.150 HD
ATOM      4  O   GLY A   1     -74.515  14.983 -17.316  0.00  0.00    -0.274 OA
ENDROOT
BRANCH   1   5
ATOM      5  CA  GLY A   1     -74.320  16.276 -19.349  0.00  0.00    +0.169 C 
BRANCH   5   6
ATOM      6  N   GLY A   1     -75.283  17.214 -19.908  0.00  0.00    -0.236 NA
ATOM      7  H   GLY A   1     -74.943  18.032 -20.453  0.00  0.00    +0.142 HD
ENDBRANCH   5   6
ENDBRANCH   1   5
BRANCH   2   8
ATOM      8  CA  ILE A   2     -74.936  17.182 -15.708  0.00  0.00    +0.137 C 
BRANCH   8   9
ATOM      9  CB  ILE A   2     -74.857  18.608 -15.095  0.00  0.00    +0.026 C 
ATOM     10  CG2 ILE A   2     -75.251  18.581 -13.630  0.00  0.00    +0.002 C 
BRANCH   9  11
ATOM     11  CG1 ILE A   2     -73.431  19.158 -15.253  0.00  0.00    +0.002 C 
ATOM     12  CD1 ILE A   2     -73.287  20.642 -14.892  0.00  0.00    +0.000 C 
ENDBRANCH   9  11
ENDBRANCH   8   9
BRANCH   8  13
ATOM     13  C   ILE A   2     -76.240  16.450 -15.339  0.00  0.00    +0.227 C 
ATOM     14  O   ILE A   2     -76.277  15.675 -14.369  0.00  0.00    -0.286 OA
ENDBRANCH   8  13
ENDBRANCH   2   8
TORSDOF 6
REMARK  Name = ../refined-set-2016/3o7u/3o7u_pocket.pdb
REMARK  141 active torsions:
REMARK  status: ('A' for Active; 'I' for Inactive)
REMARK    1  A    between atoms: _1  and  _3
REMARK    2  A    between atoms: _14  and  _17
REMARK    3  A    between atoms: _17  and  _18
REMARK    4  A    between atoms: _23  and  _24
REMARK    5  A    between atoms: _32  and  _34
REMARK    6  A    between atoms: _34  and  _35
REMARK    7  A    between atoms: _34  and  _37
REMARK    8  A    between atoms: _37  and  _38
REMARK    9  A    between atoms: _41  and  _43
REMARK   10  A    between atoms: _43  and  _44
REMARK   11  A    between atoms: _43  and  _46
REMARK   12  A    between atoms: _46  and  _47
REMARK   13  A    between atoms: _50  and  _52
REMARK   14  A    between atoms: _52  and  _53
REMARK   15  A    between atoms: _52  and  _55
REMARK   16  A    between atoms: _55  and  _56
REMARK   17  A    between atoms: _59  and  _61
REMARK   18  A    between atoms: _61  and  _62
REMARK   19  A    between atoms: _61  and  _64
REMARK   20  A    between atoms: _64  and  _65
REMARK   21  A    between atoms: _68  and  _70
REMARK   22  A    between atoms: _70  and  _71
REMARK   23  A    between atoms: _70  and  _73
REMARK   24  A    between atoms: _73  and  _74
REMARK   25  A    between atoms: _80  and  _82
REMARK   26  A    between atoms: _82  and  _83
REMARK   27  A    between atoms: _85  and  _87
REMARK   28  A    between atoms: _87  and  _88
REMARK   29  A    between atoms: _87  and  _90
REMARK   30  A    between atoms: _90  and  _91
REMARK   31  A    between atoms: _94  and  _96
REMARK   32  A    between atoms: _96  and  _97
REMARK   33  A    between atoms: _96  and  _99
REMARK   34  A    between atoms: _99  and  _100
REMARK   35  A    between atoms: _110  and  _112
REMARK   36  A    between atoms: _112  and  _113
REMARK   37  A    between atoms: _112  and  _115
REMARK   38  A    between atoms: _115  and  _116
REMARK   39  A    between atoms: _121  and  _123
REMARK   40  A    between atoms: _123  and  _124
REMARK   41  A    between atoms: _123  and  _126
REMARK   42  A    between atoms: _126  and  _127
REMARK   43  A    between atoms: _130  and  _132
REMARK   44  A    between atoms: _132  and  _133
REMARK   45  A    between atoms: _132  and  _135
REMARK   46  A    between atoms: _135  and  _136
REMARK   47  A    between atoms: _143  and  _144
REMARK   48  A    between atoms: _149  and  _151
REMARK   49  A    between atoms: _151  and  _152
REMARK   50  A    between atoms: _151  and  _154
REMARK   51  A    between atoms: _154  and  _155
REMARK   52  A    between atoms: _155  and  _156
REMARK   53  A    between atoms: _161  and  _163
REMARK   54  A    between atoms: _163  and  _164
REMARK   55  A    between atoms: _163  and  _166
REMARK   56  A    between atoms: _166  and  _167
REMARK   57  A    between atoms: _167  and  _168
REMARK   58  A    between atoms: _171  and  _173
REMARK   59  A    between atoms: _173  and  _174
REMARK   60  A    between atoms: _177  and  _179
REMARK   61  A    between atoms: _179  and  _180
REMARK   62  A    between atoms: _179  and  _182
REMARK   63  A    between atoms: _182  and  _183
REMARK   64  A    between atoms: _186  and  _188
REMARK   65  A    between atoms: _188  and  _189
REMARK   66  A    between atoms: _188  and  _191
REMARK   67  A    between atoms: _191  and  _192
REMARK   68  A    between atoms: _197  and  _199
REMARK   69  A    between atoms: _199  and  _200
REMARK   70  A    between atoms: _199  and  _202
REMARK   71  A    between atoms: _202  and  _203
REMARK   72  A    between atoms: _209  and  _211
REMARK   73  A    between atoms: _211  and  _212
REMARK   74  A    between atoms: _211  and  _214
REMARK   75  A    between atoms: _214  and  _215
REMARK   76  A    between atoms: _219  and  ZN_390
REMARK   77  A    between atoms: _220  and  _222
REMARK   78  A    between atoms: _222  and  _223
REMARK   79  A    between atoms: _222  and  _225
REMARK   80  A    between atoms: _227  and  _229
REMARK   81  A    between atoms: _229  and  _230
REMARK   82  A    between atoms: _229  and  _232
REMARK   83  A    between atoms: _232  and  _233
REMARK   84  A    between atoms: _233  and  _234
REMARK   85  A    between atoms: _237  and  _239
REMARK   86  A    between atoms: _239  and  _240
REMARK   87  A    between atoms: _239  and  _242
REMARK   88  A    between atoms: _242  and  _243
REMARK   89  A    between atoms: _245  and  _247
REMARK   90  A    between atoms: _247  and  _248
REMARK   91  A    between atoms: _247  and  _250
REMARK   92  A    between atoms: _250  and  _251
REMARK   93  A    between atoms: _256  and  _258
REMARK   94  A    between atoms: _258  and  _259
REMARK   95  A    between atoms: _258  and  _261
REMARK   96  A    between atoms: _261  and  _262
REMARK   97  A    between atoms: _267  and  _269
REMARK   98  A    between atoms: _269  and  _270
REMARK   99  A    between atoms: _269  and  _272
REMARK  100  A    between atoms: _275  and  _277
REMARK  101  A    between atoms: _277  and  _278
REMARK  102  A    between atoms: _277  and  _280
REMARK  103  A    between atoms: _280  and  _281
REMARK  104  A    between atoms: _286  and  _288
REMARK  105  A    between atoms: _288  and  _289
REMARK  106  A    between atoms: _288  and  _291
REMARK  107  A    between atoms: _291  and  _292
REMARK  108  A    between atoms: _295  and  _297
REMARK  109  A    between atoms: _297  and  _298
REMARK  110  A    between atoms: _297  and  _300
REMARK  111  A    between atoms: _300  and  _301
REMARK  112  A    between atoms: _301  and  _302
REMARK  113  A    between atoms: _307  and  _309
REMARK  114  A    between atoms: _309  and  _310
REMARK  115  A    between atoms: _309  and  _312
REMARK  116  A    between atoms: _312  and  _313
REMARK  117  A    between atoms: _318  and  _320
REMARK  118  A    between atoms: _320  and  _321
REMARK  119  A    between atoms: _320  and  _323
REMARK  120  A    between atoms: _323  and  _324
REMARK  121  A    between atoms: _327  and  _329
REMARK  122  A    between atoms: _329  and  _330
REMARK  123  A    between atoms: _329  and  _332
REMARK  124  A    between atoms: _332  and  _333
REMARK  125  A    between atoms: _336  and  _338
REMARK  126  A    between atoms: _338  and  _339
REMARK  127  A    between atoms: _338  and  _341
REMARK  128  A    between atoms: _344  and  _346
REMARK  129  A    between atoms: _346  and  _347
REMARK  130  A    between atoms: _346  and  _349
REMARK  131  A    between atoms: _349  and  _350
REMARK  132  A    between atoms: _354  and  _355
REMARK  133  A    between atoms: _360  and  _362
REMARK  134  A    between atoms: _362  and  _363
REMARK  135  A    between atoms: _362  and  _365
REMARK  136  A    between atoms: _365  and  _366
REMARK  137  A    between atoms: _376  and  _378
REMARK  138  A    between atoms: _378  and  _379
REMARK  139  A    between atoms: _378  and  _381
REMARK  140  A    between atoms: _381  and  _382
REMARK  141  A    between atoms: _387  and  _388
REMARK                            x       y       z     vdW  Elec       q    Type
REMARK                         _______ _______ _______ _____ _____    ______ ____
ROOT
ATOM      1  CG  TRP A   1     -72.858  12.854 -13.298  0.00  0.00    -0.002 A 
ATOM      2  CD1 TRP A   1     -72.691  13.687 -12.233  0.00  0.00    +0.068 A 
ATOM      3  NE1 TRP A   1     -71.984  13.053 -11.244  0.00  0.00    -0.352 N 
ATOM      4  HE1 TRP A   1     -71.712  13.475 -10.333  0.00  0.00    +0.166 HD
ATOM      5  CE2 TRP A   1     -71.693  11.777 -11.646  0.00  0.00    +0.056 A 
ATOM      6  CZ2 TRP A   1     -70.994  10.756 -10.983  0.00  0.00    +0.017 A 
ATOM      7  CH2 TRP A   1     -70.849   9.564 -11.644  0.00  0.00    +0.001 A 
ATOM      8  CZ3 TRP A   1     -71.379   9.365 -12.929  0.00  0.00    +0.000 A 
ATOM      9  CE3 TRP A   1     -72.068  10.378 -13.586  0.00  0.00    +0.001 A 
ATOM     10  CD2 TRP A   1     -72.232  11.611 -12.937  0.00  0.00    +0.013 A 
ENDROOT
BRANCH   1  11
ATOM     11  CB  TRP A   1     -73.582  13.169 -14.570  0.00  0.00    +0.053 C 
BRANCH  11  12
ATOM     12  CA  TRP A   1     -74.769  12.243 -14.827  0.00  0.00    +0.137 C 
BRANCH  12  13
ATOM     13  N   TRP A   1     -75.596  12.743 -15.919  0.00  0.00    -0.239 NA
ATOM     14  H   TRP A   1     -75.394  13.675 -16.334  0.00  0.00    +0.142 HD
ENDBRANCH  12  13
BRANCH  12  15
ATOM     15  C   TRP A   1     -75.589  12.059 -13.551  0.00  0.00    +0.224 C 
ATOM     16  O   TRP A   1     -75.410  11.077 -12.830  0.00  0.00    -0.287 OA
ENDBRANCH  12  15
ENDBRANCH  11  12
ENDBRANCH   1  11
TORSDOF 4
REMARK  Name = ../refined-set-2016/3o7u/3o7u_pocket.pdb
REMARK  141 active torsions:
REMARK  status: ('A' for Active; 'I' for Inactive)
REMARK    1  A    between atoms: _1  and  _3
REMARK    2  A    between atoms: _14  and  _17
REMARK    3  A    between atoms: _17  and  _18
REMARK    4  A    between atoms: _23  and  _24
REMARK    5  A    between atoms: _32  and  _34
REMARK    6  A    between atoms: _34  and  _35
REMARK    7  A    between atoms: _34  and  _37
REMARK    8  A    between atoms: _37  and  _38
REMARK    9  A    between atoms: _41  and  _43
REMARK   10  A    between atoms: _43  and  _44
REMARK   11  A    between atoms: _43  and  _46
REMARK   12  A    between atoms: _46  and  _47
REMARK   13  A    between atoms: _50  and  _52
REMARK   14  A    between atoms: _52  and  _53
REMARK   15  A    between atoms: _52  and  _55
REMARK   16  A    between atoms: _55  and  _56
REMARK   17  A    between atoms: _59  and  _61
REMARK   18  A    between atoms: _61  and  _62
REMARK   19  A    between atoms: _61  and  _64
REMARK   20  A    between atoms: _64  and  _65
REMARK   21  A    between atoms: _68  and  _70
REMARK   22  A    between atoms: _70  and  _71
REMARK   23  A    between atoms: _70  and  _73
REMARK   24  A    between atoms: _73  and  _74
REMARK   25  A    between atoms: _80  and  _82
REMARK   26  A    between atoms: _82  and  _83
REMARK   27  A    between atoms: _85  and  _87
REMARK   28  A    between atoms: _87  and  _88
REMARK   29  A    between atoms: _87  and  _90
REMARK   30  A    between atoms: _90  and  _91
REMARK   31  A    between atoms: _94  and  _96
REMARK   32  A    between atoms: _96  and  _97
REMARK   33  A    between atoms: _96  and  _99
REMARK   34  A    between atoms: _99  and  _100
REMARK   35  A    between atoms: _110  and  _112
REMARK   36  A    between atoms: _112  and  _113
REMARK   37  A    between atoms: _112  and  _115
REMARK   38  A    between atoms: _115  and  _116
REMARK   39  A    between atoms: _121  and  _123
REMARK   40  A    between atoms: _123  and  _124
REMARK   41  A    between atoms: _123  and  _126
REMARK   42  A    between atoms: _126  and  _127
REMARK   43  A    between atoms: _130  and  _132
REMARK   44  A    between atoms: _132  and  _133
REMARK   45  A    between atoms: _132  and  _135
REMARK   46  A    between atoms: _135  and  _136
REMARK   47  A    between atoms: _143  and  _144
REMARK   48  A    between atoms: _149  and  _151
REMARK   49  A    between atoms: _151  and  _152
REMARK   50  A    between atoms: _151  and  _154
REMARK   51  A    between atoms: _154  and  _155
REMARK   52  A    between atoms: _155  and  _156
REMARK   53  A    between atoms: _161  and  _163
REMARK   54  A    between atoms: _163  and  _164
REMARK   55  A    between atoms: _163  and  _166
REMARK   56  A    between atoms: _166  and  _167
REMARK   57  A    between atoms: _167  and  _168
REMARK   58  A    between atoms: _171  and  _173
REMARK   59  A    between atoms: _173  and  _174
REMARK   60  A    between atoms: _177  and  _179
REMARK   61  A    between atoms: _179  and  _180
REMARK   62  A    between atoms: _179  and  _182
REMARK   63  A    between atoms: _182  and  _183
REMARK   64  A    between atoms: _186  and  _188
REMARK   65  A    between atoms: _188  and  _189
REMARK   66  A    between atoms: _188  and  _191
REMARK   67  A    between atoms: _191  and  _192
REMARK   68  A    between atoms: _197  and  _199
REMARK   69  A    between atoms: _199  and  _200
REMARK   70  A    between atoms: _199  and  _202
REMARK   71  A    between atoms: _202  and  _203
REMARK   72  A    between atoms: _209  and  _211
REMARK   73  A    between atoms: _211  and  _212
REMARK   74  A    between atoms: _211  and  _214
REMARK   75  A    between atoms: _214  and  _215
REMARK   76  A    between atoms: _219  and  ZN_390
REMARK   77  A    between atoms: _220  and  _222
REMARK   78  A    between atoms: _222  and  _223
REMARK   79  A    between atoms: _222  and  _225
REMARK   80  A    between atoms: _227  and  _229
REMARK   81  A    between atoms: _229  and  _230
REMARK   82  A    between atoms: _229  and  _232
REMARK   83  A    between atoms: _232  and  _233
REMARK   84  A    between atoms: _233  and  _234
REMARK   85  A    between atoms: _237  and  _239
REMARK   86  A    between atoms: _239  and  _240
REMARK   87  A    between atoms: _239  and  _242
REMARK   88  A    between atoms: _242  and  _243
REMARK   89  A    between atoms: _245  and  _247
REMARK   90  A    between atoms: _247  and  _248
REMARK   91  A    between atoms: _247  and  _250
REMARK   92  A    between atoms: _250  and  _251
REMARK   93  A    between atoms: _256  and  _258
REMARK   94  A    between atoms: _258  and  _259
REMARK   95  A    between atoms: _258  and  _261
REMARK   96  A    between atoms: _261  and  _262
REMARK   97  A    between atoms: _267  and  _269
REMARK   98  A    between atoms: _269  and  _270
REMARK   99  A    between atoms: _269  and  _272
REMARK  100  A    between atoms: _275  and  _277
REMARK  101  A    between atoms: _277  and  _278
REMARK  102  A    between atoms: _277  and  _280
REMARK  103  A    between atoms: _280  and  _281
REMARK  104  A    between atoms: _286  and  _288
REMARK  105  A    between atoms: _288  and  _289
REMARK  106  A    between atoms: _288  and  _291
REMARK  107  A    between atoms: _291  and  _292
REMARK  108  A    between atoms: _295  and  _297
REMARK  109  A    between atoms: _297  and  _298
REMARK  110  A    between atoms: _297  and  _300
REMARK  111  A    between atoms: _300  and  _301
REMARK  112  A    between atoms: _301  and  _302
REMARK  113  A    between atoms: _307  and  _309
REMARK  114  A    between atoms: _309  and  _310
REMARK  115  A    between atoms: _309  and  _312
REMARK  116  A    between atoms: _312  and  _313
REMARK  117  A    between atoms: _318  and  _320
REMARK  118  A    between atoms: _320  and  _321
REMARK  119  A    between atoms: _320  and  _323
REMARK  120  A    between atoms: _323  and  _324
REMARK  121  A    between atoms: _327  and  _329
REMARK  122  A    between atoms: _329  and  _330
REMARK  123  A    between atoms: _329  and  _332
REMARK  124  A    between atoms: _332  and  _333
REMARK  125  A    between atoms: _336  and  _338
REMARK  126  A    between atoms: _338  and  _339
REMARK  127  A    between atoms: _338  and  _341
REMARK  128  A    between atoms: _344  and  _346
REMARK  129  A    between atoms: _346  and  _347
REMARK  130  A    between atoms: _346  and  _349
REMARK  131  A    between atoms: _349  and  _350
REMARK  132  A    between atoms: _354  and  _355
REMARK  133  A    between atoms: _360  and  _362
REMARK  134  A    between atoms: _362  and  _363
REMARK  135  A    between atoms: _362  and  _365
REMARK  136  A    between atoms: _365  and  _366
REMARK  137  A    between atoms: _376  and  _378
REMARK  138  A    between atoms: _378  and  _379
REMARK  139  A    between atoms: _378  and  _381
REMARK  140  A    between atoms: _381  and  _382
REMARK  141  A    between atoms: _387  and  _388
REMARK                            x       y       z     vdW  Elec       q    Type
REMARK                         _______ _______ _______ _____ _____    ______ ____
ROOT
ATOM      1  CB  HIS A   1     -62.956  16.528 -10.625  0.00  0.00    +0.072 C 
ENDROOT
BRANCH   1   2
ATOM      2  CG  HIS A   1     -62.030  17.659 -10.936  0.00  0.00    +0.082 A 
ATOM      3  ND1 HIS A   1     -62.071  18.861 -10.263  0.00  0.00    -0.227 NA
ATOM      4  CE1 HIS A   1     -61.118  19.654 -10.725  0.00  0.00    +0.199 A 
ATOM      5  NE2 HIS A   1     -60.442  18.997 -11.651  0.00  0.00    -0.221 NA
ATOM      6  CD2 HIS A   1     -60.989  17.745 -11.799  0.00  0.00    +0.115 A 
ENDBRANCH   1   2
BRANCH   1   7
ATOM      7  CA  HIS A   1     -62.305  15.440  -9.752  0.00  0.00    +0.139 C 
BRANCH   7   8
ATOM      8  N   HIS A   1     -61.226  14.791 -10.463  0.00  0.00    -0.239 NA
ATOM      9  H   HIS A   1     -61.273  14.719 -11.499  0.00  0.00    +0.142 HD
ENDBRANCH   7   8
BRANCH   7  10
ATOM     10  C   HIS A   1     -63.293  14.329  -9.427  0.00  0.00    +0.224 C 
ATOM     11  O   HIS A   1     -63.487  13.418 -10.232  0.00  0.00    -0.287 OA
ENDBRANCH   7  10
ENDBRANCH   1   7
TORSDOF 4
REMARK  Name = ../refined-set-2016/3o7u/3o7u_pocket.pdb
REMARK  141 active torsions:
REMARK  status: ('A' for Active; 'I' for Inactive)
REMARK    1  A    between atoms: _1  and  _3
REMARK    2  A    between atoms: _14  and  _17
REMARK    3  A    between atoms: _17  and  _18
REMARK    4  A    between atoms: _23  and  _24
REMARK    5  A    between atoms: _32  and  _34
REMARK    6  A    between atoms: _34  and  _35
REMARK    7  A    between atoms: _34  and  _37
REMARK    8  A    between atoms: _37  and  _38
REMARK    9  A    between atoms: _41  and  _43
REMARK   10  A    between atoms: _43  and  _44
REMARK   11  A    between atoms: _43  and  _46
REMARK   12  A    between atoms: _46  and  _47
REMARK   13  A    between atoms: _50  and  _52
REMARK   14  A    between atoms: _52  and  _53
REMARK   15  A    between atoms: _52  and  _55
REMARK   16  A    between atoms: _55  and  _56
REMARK   17  A    between atoms: _59  and  _61
REMARK   18  A    between atoms: _61  and  _62
REMARK   19  A    between atoms: _61  and  _64
REMARK   20  A    between atoms: _64  and  _65
REMARK   21  A    between atoms: _68  and  _70
REMARK   22  A    between atoms: _70  and  _71
REMARK   23  A    between atoms: _70  and  _73
REMARK   24  A    between atoms: _73  and  _74
REMARK   25  A    between atoms: _80  and  _82
REMARK   26  A    between atoms: _82  and  _83
REMARK   27  A    between atoms: _85  and  _87
REMARK   28  A    between atoms: _87  and  _88
REMARK   29  A    between atoms: _87  and  _90
REMARK   30  A    between atoms: _90  and  _91
REMARK   31  A    between atoms: _94  and  _96
REMARK   32  A    between atoms: _96  and  _97
REMARK   33  A    between atoms: _96  and  _99
REMARK   34  A    between atoms: _99  and  _100
REMARK   35  A    between atoms: _110  and  _112
REMARK   36  A    between atoms: _112  and  _113
REMARK   37  A    between atoms: _112  and  _115
REMARK   38  A    between atoms: _115  and  _116
REMARK   39  A    between atoms: _121  and  _123
REMARK   40  A    between atoms: _123  and  _124
REMARK   41  A    between atoms: _123  and  _126
REMARK   42  A    between atoms: _126  and  _127
REMARK   43  A    between atoms: _130  and  _132
REMARK   44  A    between atoms: _132  and  _133
REMARK   45  A    between atoms: _132  and  _135
REMARK   46  A    between atoms: _135  and  _136
REMARK   47  A    between atoms: _143  and  _144
REMARK   48  A    between atoms: _149  and  _151
REMARK   49  A    between atoms: _151  and  _152
REMARK   50  A    between atoms: _151  and  _154
REMARK   51  A    between atoms: _154  and  _155
REMARK   52  A    between atoms: _155  and  _156
REMARK   53  A    between atoms: _161  and  _163
REMARK   54  A    between atoms: _163  and  _164
REMARK   55  A    between atoms: _163  and  _166
REMARK   56  A    between atoms: _166  and  _167
REMARK   57  A    between atoms: _167  and  _168
REMARK   58  A    between atoms: _171  and  _173
REMARK   59  A    between atoms: _173  and  _174
REMARK   60  A    between atoms: _177  and  _179
REMARK   61  A    between atoms: _179  and  _180
REMARK   62  A    between atoms: _179  and  _182
REMARK   63  A    between atoms: _182  and  _183
REMARK   64  A    between atoms: _186  and  _188
REMARK   65  A    between atoms: _188  and  _189
REMARK   66  A    between atoms: _188  and  _191
REMARK   67  A    between atoms: _191  and  _192
REMARK   68  A    between atoms: _197  and  _199
REMARK   69  A    between atoms: _199  and  _200
REMARK   70  A    between atoms: _199  and  _202
REMARK   71  A    between atoms: _202  and  _203
REMARK   72  A    between atoms: _209  and  _211
REMARK   73  A    between atoms: _211  and  _212
REMARK   74  A    between atoms: _211  and  _214
REMARK   75  A    between atoms: _214  and  _215
REMARK   76  A    between atoms: _219  and  ZN_390
REMARK   77  A    between atoms: _220  and  _222
REMARK   78  A    between atoms: _222  and  _223
REMARK   79  A    between atoms: _222  and  _225
REMARK   80  A    between atoms: _227  and  _229
REMARK   81  A    between atoms: _229  and  _230
REMARK   82  A    between atoms: _229  and  _232
REMARK   83  A    between atoms: _232  and  _233
REMARK   84  A    between atoms: _233  and  _234
REMARK   85  A    between atoms: _237  and  _239
REMARK   86  A    between atoms: _239  and  _240
REMARK   87  A    between atoms: _239  and  _242
REMARK   88  A    between atoms: _242  and  _243
REMARK   89  A    between atoms: _245  and  _247
REMARK   90  A    between atoms: _247  and  _248
REMARK   91  A    between atoms: _247  and  _250
REMARK   92  A    between atoms: _250  and  _251
REMARK   93  A    between atoms: _256  and  _258
REMARK   94  A    between atoms: _258  and  _259
REMARK   95  A    between atoms: _258  and  _261
REMARK   96  A    between atoms: _261  and  _262
REMARK   97  A    between atoms: _267  and  _269
REMARK   98  A    between atoms: _269  and  _270
REMARK   99  A    between atoms: _269  and  _272
REMARK  100  A    between atoms: _275  and  _277
REMARK  101  A    between atoms: _277  and  _278
REMARK  102  A    between atoms: _277  and  _280
REMARK  103  A    between atoms: _280  and  _281
REMARK  104  A    between atoms: _286  and  _288
REMARK  105  A    between atoms: _288  and  _289
REMARK  106  A    between atoms: _288  and  _291
REMARK  107  A    between atoms: _291  and  _292
REMARK  108  A    between atoms: _295  and  _297
REMARK  109  A    between atoms: _297  and  _298
REMARK  110  A    between atoms: _297  and  _300
REMARK  111  A    between atoms: _300  and  _301
REMARK  112  A    between atoms: _301  and  _302
REMARK  113  A    between atoms: _307  and  _309
REMARK  114  A    between atoms: _309  and  _310
REMARK  115  A    between atoms: _309  and  _312
REMARK  116  A    between atoms: _312  and  _313
REMARK  117  A    between atoms: _318  and  _320
REMARK  118  A    between atoms: _320  and  _321
REMARK  119  A    between atoms: _320  and  _323
REMARK  120  A    between atoms: _323  and  _324
REMARK  121  A    between atoms: _327  and  _329
REMARK  122  A    between atoms: _329  and  _330
REMARK  123  A    between atoms: _329  and  _332
REMARK  124  A    between atoms: _332  and  _333
REMARK  125  A    between atoms: _336  and  _338
REMARK  126  A    between atoms: _338  and  _339
REMARK  127  A    between atoms: _338  and  _341
REMARK  128  A    between atoms: _344  and  _346
REMARK  129  A    between atoms: _346  and  _347
REMARK  130  A    between atoms: _346  and  _349
REMARK  131  A    between atoms: _349  and  _350
REMARK  132  A    between atoms: _354  and  _355
REMARK  133  A    between atoms: _360  and  _362
REMARK  134  A    between atoms: _362  and  _363
REMARK  135  A    between atoms: _362  and  _365
REMARK  136  A    between atoms: _365  and  _366
REMARK  137  A    between atoms: _376  and  _378
REMARK  138  A    between atoms: _378  and  _379
REMARK  139  A    between atoms: _378  and  _381
REMARK  140  A    between atoms: _381  and  _382
REMARK  141  A    between atoms: _387  and  _388
REMARK                            x       y       z     vdW  Elec       q    Type
REMARK                         _______ _______ _______ _____ _____    ______ ____
ROOT
ATOM      1  CA  ASP A   1     -68.505  14.573  -7.440  0.00  0.00    +0.144 C 
ENDROOT
BRANCH   1   2
ATOM      2  N   ASP A   1     -67.283  13.864  -7.793  0.00  0.00    -0.239 NA
ATOM      3  H   ASP A   1     -67.341  13.076  -8.469  0.00  0.00    +0.142 HD
ENDBRANCH   1   2
BRANCH   1   4
ATOM      4  C   ASP A   1     -68.880  14.289  -5.974  0.00  0.00    +0.225 C 
ATOM      5  O   ASP A   1     -69.134  13.143  -5.602  0.00  0.00    -0.287 OA
ENDBRANCH   1   4
BRANCH   1   6
ATOM      6  CB  ASP A   1     -69.613  14.153  -8.414  0.00  0.00    +0.139 C 
BRANCH   6   7
ATOM      7  CG  ASP A   1     -70.926  14.876  -8.183  0.00  0.00    +0.367 C 
ATOM      8  OD2 ASP A   1     -71.024  15.680  -7.241  0.00  0.00    -0.246 OA
ATOM      9  OD1 ASP A   1     -71.874  14.626  -8.971  0.00  0.00    -0.246 OA
ENDBRANCH   6   7
ENDBRANCH   1   6
TORSDOF 4
REMARK  Name = ../refined-set-2016/3o7u/3o7u_pocket.pdb
REMARK  141 active torsions:
REMARK  status: ('A' for Active; 'I' for Inactive)
REMARK    1  A    between atoms: _1  and  _3
REMARK    2  A    between atoms: _14  and  _17
REMARK    3  A    between atoms: _17  and  _18
REMARK    4  A    between atoms: _23  and  _24
REMARK    5  A    between atoms: _32  and  _34
REMARK    6  A    between atoms: _34  and  _35
REMARK    7  A    between atoms: _34  and  _37
REMARK    8  A    between atoms: _37  and  _38
REMARK    9  A    between atoms: _41  and  _43
REMARK   10  A    between atoms: _43  and  _44
REMARK   11  A    between atoms: _43  and  _46
REMARK   12  A    between atoms: _46  and  _47
REMARK   13  A    between atoms: _50  and  _52
REMARK   14  A    between atoms: _52  and  _53
REMARK   15  A    between atoms: _52  and  _55
REMARK   16  A    between atoms: _55  and  _56
REMARK   17  A    between atoms: _59  and  _61
REMARK   18  A    between atoms: _61  and  _62
REMARK   19  A    between atoms: _61  and  _64
REMARK   20  A    between atoms: _64  and  _65
REMARK   21  A    between atoms: _68  and  _70
REMARK   22  A    between atoms: _70  and  _71
REMARK   23  A    between atoms: _70  and  _73
REMARK   24  A    between atoms: _73  and  _74
REMARK   25  A    between atoms: _80  and  _82
REMARK   26  A    between atoms: _82  and  _83
REMARK   27  A    between atoms: _85  and  _87
REMARK   28  A    between atoms: _87  and  _88
REMARK   29  A    between atoms: _87  and  _90
REMARK   30  A    between atoms: _90  and  _91
REMARK   31  A    between atoms: _94  and  _96
REMARK   32  A    between atoms: _96  and  _97
REMARK   33  A    between atoms: _96  and  _99
REMARK   34  A    between atoms: _99  and  _100
REMARK   35  A    between atoms: _110  and  _112
REMARK   36  A    between atoms: _112  and  _113
REMARK   37  A    between atoms: _112  and  _115
REMARK   38  A    between atoms: _115  and  _116
REMARK   39  A    between atoms: _121  and  _123
REMARK   40  A    between atoms: _123  and  _124
REMARK   41  A    between atoms: _123  and  _126
REMARK   42  A    between atoms: _126  and  _127
REMARK   43  A    between atoms: _130  and  _132
REMARK   44  A    between atoms: _132  and  _133
REMARK   45  A    between atoms: _132  and  _135
REMARK   46  A    between atoms: _135  and  _136
REMARK   47  A    between atoms: _143  and  _144
REMARK   48  A    between atoms: _149  and  _151
REMARK   49  A    between atoms: _151  and  _152
REMARK   50  A    between atoms: _151  and  _154
REMARK   51  A    between atoms: _154  and  _155
REMARK   52  A    between atoms: _155  and  _156
REMARK   53  A    between atoms: _161  and  _163
REMARK   54  A    between atoms: _163  and  _164
REMARK   55  A    between atoms: _163  and  _166
REMARK   56  A    between atoms: _166  and  _167
REMARK   57  A    between atoms: _167  and  _168
REMARK   58  A    between atoms: _171  and  _173
REMARK   59  A    between atoms: _173  and  _174
REMARK   60  A    between atoms: _177  and  _179
REMARK   61  A    between atoms: _179  and  _180
REMARK   62  A    between atoms: _179  and  _182
REMARK   63  A    between atoms: _182  and  _183
REMARK   64  A    between atoms: _186  and  _188
REMARK   65  A    between atoms: _188  and  _189
REMARK   66  A    between atoms: _188  and  _191
REMARK   67  A    between atoms: _191  and  _192
REMARK   68  A    between atoms: _197  and  _199
REMARK   69  A    between atoms: _199  and  _200
REMARK   70  A    between atoms: _199  and  _202
REMARK   71  A    between atoms: _202  and  _203
REMARK   72  A    between atoms: _209  and  _211
REMARK   73  A    between atoms: _211  and  _212
REMARK   74  A    between atoms: _211  and  _214
REMARK   75  A    between atoms: _214  and  _215
REMARK   76  A    between atoms: _219  and  ZN_390
REMARK   77  A    between atoms: _220  and  _222
REMARK   78  A    between atoms: _222  and  _223
REMARK   79  A    between atoms: _222  and  _225
REMARK   80  A    between atoms: _227  and  _229
REMARK   81  A    between atoms: _229  and  _230
REMARK   82  A    between atoms: _229  and  _232
REMARK   83  A    between atoms: _232  and  _233
REMARK   84  A    between atoms: _233  and  _234
REMARK   85  A    between atoms: _237  and  _239
REMARK   86  A    between atoms: _239  and  _240
REMARK   87  A    between atoms: _239  and  _242
REMARK   88  A    between atoms: _242  and  _243
REMARK   89  A    between atoms: _245  and  _247
REMARK   90  A    between atoms: _247  and  _248
REMARK   91  A    between atoms: _247  and  _250
REMARK   92  A    between atoms: _250  and  _251
REMARK   93  A    between atoms: _256  and  _258
REMARK   94  A    between atoms: _258  and  _259
REMARK   95  A    between atoms: _258  and  _261
REMARK   96  A    between atoms: _261  and  _262
REMARK   97  A    between atoms: _267  and  _269
REMARK   98  A    between atoms: _269  and  _270
REMARK   99  A    between atoms: _269  and  _272
REMARK  100  A    between atoms: _275  and  _277
REMARK  101  A    between atoms: _277  and  _278
REMARK  102  A    between atoms: _277  and  _280
REMARK  103  A    between atoms: _280  and  _281
REMARK  104  A    between atoms: _286  and  _288
REMARK  105  A    between atoms: _288  and  _289
REMARK  106  A    between atoms: _288  and  _291
REMARK  107  A    between atoms: _291  and  _292
REMARK  108  A    between atoms: _295  and  _297
REMARK  109  A    between atoms: _297  and  _298
REMARK  110  A    between atoms: _297  and  _300
REMARK  111  A    between atoms: _300  and  _301
REMARK  112  A    between atoms: _301  and  _302
REMARK  113  A    between atoms: _307  and  _309
REMARK  114  A    between atoms: _309  and  _310
REMARK  115  A    between atoms: _309  and  _312
REMARK  116  A    between atoms: _312  and  _313
REMARK  117  A    between atoms: _318  and  _320
REMARK  118  A    between atoms: _320  and  _321
REMARK  119  A    between atoms: _320  and  _323
REMARK  120  A    between atoms: _323  and  _324
REMARK  121  A    between atoms: _327  and  _329
REMARK  122  A    between atoms: _329  and  _330
REMARK  123  A    between atoms: _329  and  _332
REMARK  124  A    between atoms: _332  and  _333
REMARK  125  A    between atoms: _336  and  _338
REMARK  126  A    between atoms: _338  and  _339
REMARK  127  A    between atoms: _338  and  _341
REMARK  128  A    between atoms: _344  and  _346
REMARK  129  A    between atoms: _346  and  _347
REMARK  130  A    between atoms: _346  and  _349
REMARK  131  A    between atoms: _349  and  _350
REMARK  132  A    between atoms: _354  and  _355
REMARK  133  A    between atoms: _360  and  _362
REMARK  134  A    between atoms: _362  and  _363
REMARK  135  A    between atoms: _362  and  _365
REMARK  136  A    between atoms: _365  and  _366
REMARK  137  A    between atoms: _376  and  _378
REMARK  138  A    between atoms: _378  and  _379
REMARK  139  A    between atoms: _378  and  _381
REMARK  140  A    between atoms: _381  and  _382
REMARK  141  A    between atoms: _387  and  _388
REMARK                            x       y       z     vdW  Elec       q    Type
REMARK                         _______ _______ _______ _____ _____    ______ ____
ROOT
ATOM      1  C   PRO A   2     -70.085  20.105  -6.983  0.00  0.00    +0.241 C 
ATOM      2  O   PRO A   2     -70.484  21.244  -7.213  0.00  0.00    -0.273 OA
ATOM      3  N   GLN A   3     -70.300  19.059  -7.779  0.00  0.00    -0.297 N 
ATOM      4  H   GLN A   3     -70.049  18.115  -7.423  0.00  0.00    +0.150 HD
ENDROOT
BRANCH   1   7
ATOM      5  C   PHE A   1     -67.332  18.597  -6.429  0.00  0.00    +0.242 C 
ATOM      6  N   PRO A   2     -67.863  19.738  -5.977  0.00  0.00    -0.272 N 
ATOM      7  CA  PRO A   2     -69.299  19.827  -5.705  0.00  0.00    +0.152 C 
ATOM      8  CB  PRO A   2     -69.389  21.004  -4.738  0.00  0.00    +0.031 C 
ATOM      9  CG  PRO A   2     -68.208  21.881  -5.098  0.00  0.00    +0.024 C 
ATOM     10  CD  PRO A   2     -67.164  21.016  -5.752  0.00  0.00    +0.094 C 
ATOM     11  O   PHE A   1     -68.014  17.600  -6.646  0.00  0.00    -0.273 OA
BRANCH   5  12
ATOM     12  CA  PHE A   1     -65.827  18.580  -6.665  0.00  0.00    +0.149 C 
BRANCH  12  13
ATOM     13  N   PHE A   1     -65.175  17.741  -5.640  0.00  0.00    -0.238 NA
ATOM     14  H   PHE A   1     -65.300  16.710  -5.688  0.00  0.00    +0.142 HD
ENDBRANCH  12  13
BRANCH  12  15
ATOM     15  CB  PHE A   1     -65.480  18.007  -8.053  0.00  0.00    +0.053 C 
BRANCH  15  16
ATOM     16  CG  PHE A   1     -66.289  18.587  -9.199  0.00  0.00    -0.020 A 
ATOM     17  CD2 PHE A   1     -66.345  19.959  -9.411  0.00  0.00    -0.004 A 
ATOM     18  CE2 PHE A   1     -67.068  20.489 -10.482  0.00  0.00    -0.000 A 
ATOM     19  CZ  PHE A   1     -67.724  19.648 -11.350  0.00  0.00    -0.000 A 
ATOM     20  CE1 PHE A   1     -67.671  18.269 -11.161  0.00  0.00    -0.000 A 
ATOM     21  CD1 PHE A   1     -66.948  17.746 -10.090  0.00  0.00    -0.004 A 
ENDBRANCH  15  16
ENDBRANCH  12  15
ENDBRANCH   5  12
ENDBRANCH   1   7
BRANCH   3  22
ATOM     22  CA  GLN A   3     -70.868  19.158  -9.126  0.00  0.00    +0.149 C 
BRANCH  22  23
ATOM     23  C   GLN A   3     -72.148  19.977  -9.173  0.00  0.00    +0.241 C 
ATOM     24  N   GLU A   4     -72.964  19.886  -8.128  0.00  0.00    -0.298 N 
ATOM     25  H   GLU A   4     -72.678  19.351  -7.283  0.00  0.00    +0.150 HD
ATOM     26  O   GLN A   3     -72.405  20.684 -10.156  0.00  0.00    -0.273 OA
BRANCH  24  27
ATOM     27  CA  GLU A   4     -74.267  20.546  -8.179  0.00  0.00    +0.137 C 
BRANCH  27  28
ATOM     28  C   GLU A   4     -74.309  21.830  -7.365  0.00  0.00    +0.227 C 
ATOM     29  O   GLU A   4     -75.377  22.386  -7.114  0.00  0.00    -0.286 OA
ENDBRANCH  27  28
BRANCH  27  30
ATOM     30  CB  GLU A   4     -75.387  19.581  -7.772  0.00  0.00    +0.039 C 
BRANCH  30  31
ATOM     31  CG  GLU A   4     -75.460  18.402  -8.722  0.00  0.00    +0.116 C 
BRANCH  31  32
ATOM     32  CD  GLU A   4     -76.653  17.491  -8.486  0.00  0.00    +0.365 C 
ATOM     33  OE2 GLU A   4     -77.766  17.999  -8.253  0.00  0.00    -0.246 OA
ATOM     34  OE1 GLU A   4     -76.476  16.260  -8.555  0.00  0.00    -0.246 OA
ENDBRANCH  31  32
ENDBRANCH  30  31
ENDBRANCH  27  30
ENDBRANCH  24  27
ENDBRANCH  22  23
BRANCH  22  35
ATOM     35  CB  GLN A   3     -71.132  17.755  -9.692  0.00  0.00    +0.039 C 
BRANCH  35  36
ATOM     36  CG  GLN A   3     -71.885  17.704 -11.046  0.00  0.00    +0.087 C 
BRANCH  36  37
ATOM     37  CD  GLN A   3     -71.045  18.183 -12.232  0.00  0.00    +0.219 C 
ATOM     38  NE2 GLN A   3     -71.067  19.491 -12.472  0.00  0.00    -0.329 N 
ATOM     39 HE21 GLN A   3     -71.619  20.123 -11.858  0.00  0.00    +0.145 HD
ATOM     40 HE22 GLN A   3     -70.532  19.882 -13.274  0.00  0.00    +0.145 HD
ATOM     41  OE1 GLN A   3     -70.402  17.383 -12.935  0.00  0.00    -0.275 OA
ENDBRANCH  36  37
ENDBRANCH  35  36
ENDBRANCH  22  35
ENDBRANCH   3  22
TORSDOF 15
REMARK  Name = ../refined-set-2016/3o7u/3o7u_pocket.pdb
REMARK  141 active torsions:
REMARK  status: ('A' for Active; 'I' for Inactive)
REMARK    1  A    between atoms: _1  and  _3
REMARK    2  A    between atoms: _14  and  _17
REMARK    3  A    between atoms: _17  and  _18
REMARK    4  A    between atoms: _23  and  _24
REMARK    5  A    between atoms: _32  and  _34
REMARK    6  A    between atoms: _34  and  _35
REMARK    7  A    between atoms: _34  and  _37
REMARK    8  A    between atoms: _37  and  _38
REMARK    9  A    between atoms: _41  and  _43
REMARK   10  A    between atoms: _43  and  _44
REMARK   11  A    between atoms: _43  and  _46
REMARK   12  A    between atoms: _46  and  _47
REMARK   13  A    between atoms: _50  and  _52
REMARK   14  A    between atoms: _52  and  _53
REMARK   15  A    between atoms: _52  and  _55
REMARK   16  A    between atoms: _55  and  _56
REMARK   17  A    between atoms: _59  and  _61
REMARK   18  A    between atoms: _61  and  _62
REMARK   19  A    between atoms: _61  and  _64
REMARK   20  A    between atoms: _64  and  _65
REMARK   21  A    between atoms: _68  and  _70
REMARK   22  A    between atoms: _70  and  _71
REMARK   23  A    between atoms: _70  and  _73
REMARK   24  A    between atoms: _73  and  _74
REMARK   25  A    between atoms: _80  and  _82
REMARK   26  A    between atoms: _82  and  _83
REMARK   27  A    between atoms: _85  and  _87
REMARK   28  A    between atoms: _87  and  _88
REMARK   29  A    between atoms: _87  and  _90
REMARK   30  A    between atoms: _90  and  _91
REMARK   31  A    between atoms: _94  and  _96
REMARK   32  A    between atoms: _96  and  _97
REMARK   33  A    between atoms: _96  and  _99
REMARK   34  A    between atoms: _99  and  _100
REMARK   35  A    between atoms: _110  and  _112
REMARK   36  A    between atoms: _112  and  _113
REMARK   37  A    between atoms: _112  and  _115
REMARK   38  A    between atoms: _115  and  _116
REMARK   39  A    between atoms: _121  and  _123
REMARK   40  A    between atoms: _123  and  _124
REMARK   41  A    between atoms: _123  and  _126
REMARK   42  A    between atoms: _126  and  _127
REMARK   43  A    between atoms: _130  and  _132
REMARK   44  A    between atoms: _132  and  _133
REMARK   45  A    between atoms: _132  and  _135
REMARK   46  A    between atoms: _135  and  _136
REMARK   47  A    between atoms: _143  and  _144
REMARK   48  A    between atoms: _149  and  _151
REMARK   49  A    between atoms: _151  and  _152
REMARK   50  A    between atoms: _151  and  _154
REMARK   51  A    between atoms: _154  and  _155
REMARK   52  A    between atoms: _155  and  _156
REMARK   53  A    between atoms: _161  and  _163
REMARK   54  A    between atoms: _163  and  _164
REMARK   55  A    between atoms: _163  and  _166
REMARK   56  A    between atoms: _166  and  _167
REMARK   57  A    between atoms: _167  and  _168
REMARK   58  A    between atoms: _171  and  _173
REMARK   59  A    between atoms: _173  and  _174
REMARK   60  A    between atoms: _177  and  _179
REMARK   61  A    between atoms: _179  and  _180
REMARK   62  A    between atoms: _179  and  _182
REMARK   63  A    between atoms: _182  and  _183
REMARK   64  A    between atoms: _186  and  _188
REMARK   65  A    between atoms: _188  and  _189
REMARK   66  A    between atoms: _188  and  _191
REMARK   67  A    between atoms: _191  and  _192
REMARK   68  A    between atoms: _197  and  _199
REMARK   69  A    between atoms: _199  and  _200
REMARK   70  A    between atoms: _199  and  _202
REMARK   71  A    between atoms: _202  and  _203
REMARK   72  A    between atoms: _209  and  _211
REMARK   73  A    between atoms: _211  and  _212
REMARK   74  A    between atoms: _211  and  _214
REMARK   75  A    between atoms: _214  and  _215
REMARK   76  A    between atoms: _219  and  ZN_390
REMARK   77  A    between atoms: _220  and  _222
REMARK   78  A    between atoms: _222  and  _223
REMARK   79  A    between atoms: _222  and  _225
REMARK   80  A    between atoms: _227  and  _229
REMARK   81  A    between atoms: _229  and  _230
REMARK   82  A    between atoms: _229  and  _232
REMARK   83  A    between atoms: _232  and  _233
REMARK   84  A    between atoms: _233  and  _234
REMARK   85  A    between atoms: _237  and  _239
REMARK   86  A    between atoms: _239  and  _240
REMARK   87  A    between atoms: _239  and  _242
REMARK   88  A    between atoms: _242  and  _243
REMARK   89  A    between atoms: _245  and  _247
REMARK   90  A    between atoms: _247  and  _248
REMARK   91  A    between atoms: _247  and  _250
REMARK   92  A    between atoms: _250  and  _251
REMARK   93  A    between atoms: _256  and  _258
REMARK   94  A    between atoms: _258  and  _259
REMARK   95  A    between atoms: _258  and  _261
REMARK   96  A    between atoms: _261  and  _262
REMARK   97  A    between atoms: _267  and  _269
REMARK   98  A    between atoms: _269  and  _270
REMARK   99  A    between atoms: _269  and  _272
REMARK  100  A    between atoms: _275  and  _277
REMARK  101  A    between atoms: _277  and  _278
REMARK  102  A    between atoms: _277  and  _280
REMARK  103  A    between atoms: _280  and  _281
REMARK  104  A    between atoms: _286  and  _288
REMARK  105  A    between atoms: _288  and  _289
REMARK  106  A    between atoms: _288  and  _291
REMARK  107  A    between atoms: _291  and  _292
REMARK  108  A    between atoms: _295  and  _297
REMARK  109  A    between atoms: _297  and  _298
REMARK  110  A    between atoms: _297  and  _300
REMARK  111  A    between atoms: _300  and  _301
REMARK  112  A    between atoms: _301  and  _302
REMARK  113  A    between atoms: _307  and  _309
REMARK  114  A    between atoms: _309  and  _310
REMARK  115  A    between atoms: _309  and  _312
REMARK  116  A    between atoms: _312  and  _313
REMARK  117  A    between atoms: _318  and  _320
REMARK  118  A    between atoms: _320  and  _321
REMARK  119  A    between atoms: _320  and  _323
REMARK  120  A    between atoms: _323  and  _324
REMARK  121  A    between atoms: _327  and  _329
REMARK  122  A    between atoms: _329  and  _330
REMARK  123  A    between atoms: _329  and  _332
REMARK  124  A    between atoms: _332  and  _333
REMARK  125  A    between atoms: _336  and  _338
REMARK  126  A    between atoms: _338  and  _339
REMARK  127  A    between atoms: _338  and  _341
REMARK  128  A    between atoms: _344  and  _346
REMARK  129  A    between atoms: _346  and  _347
REMARK  130  A    between atoms: _346  and  _349
REMARK  131  A    between atoms: _349  and  _350
REMARK  132  A    between atoms: _354  and  _355
REMARK  133  A    between atoms: _360  and  _362
REMARK  134  A    between atoms: _362  and  _363
REMARK  135  A    between atoms: _362  and  _365
REMARK  136  A    between atoms: _365  and  _366
REMARK  137  A    between atoms: _376  and  _378
REMARK  138  A    between atoms: _378  and  _379
REMARK  139  A    between atoms: _378  and  _381
REMARK  140  A    between atoms: _381  and  _382
REMARK  141  A    between atoms: _387  and  _388
REMARK                            x       y       z     vdW  Elec       q    Type
REMARK                         _______ _______ _______ _____ _____    ______ ____
ROOT
ATOM      1  C   ALA A   1     -66.633  24.691  -8.205  0.00  0.00    +0.238 C 
ATOM      2  N   ILE A   2     -67.805  25.285  -8.387  0.00  0.00    -0.298 N 
ATOM      3  H   ILE A   2     -68.312  25.673  -7.566  0.00  0.00    +0.150 HD
ATOM      4  O   ALA A   1     -65.969  24.221  -9.130  0.00  0.00    -0.274 OA
ENDROOT
BRANCH   1   5
ATOM      5  CA  ALA A   1     -66.131  24.596  -6.764  0.00  0.00    +0.145 C 
ATOM      6  CB  ALA A   1     -65.812  25.985  -6.230  0.00  0.00    +0.028 C 
BRANCH   5   7
ATOM      7  N   ALA A   1     -64.941  23.747  -6.770  0.00  0.00    -0.238 NA
ATOM      8  H   ALA A   1     -64.470  23.561  -7.678  0.00  0.00    +0.142 HD
ENDBRANCH   5   7
ENDBRANCH   1   5
BRANCH   2   9
ATOM      9  CA  ILE A   2     -68.399  25.406  -9.719  0.00  0.00    +0.137 C 
BRANCH   9  10
ATOM     10  C   ILE A   2     -69.306  26.647  -9.760  0.00  0.00    +0.227 C 
ATOM     11  O   ILE A   2     -70.531  26.557  -9.876  0.00  0.00    -0.286 OA
ENDBRANCH   9  10
BRANCH   9  12
ATOM     12  CB  ILE A   2     -69.135  24.103 -10.138  0.00  0.00    +0.026 C 
ATOM     13  CG2 ILE A   2     -70.325  23.804  -9.216  0.00  0.00    +0.002 C 
BRANCH  12  14
ATOM     14  CG1 ILE A   2     -69.562  24.160 -11.608  0.00  0.00    +0.002 C 
ATOM     15  CD1 ILE A   2     -70.223  22.862 -12.102  0.00  0.00    +0.000 C 
ENDBRANCH  12  14
ENDBRANCH   9  12
ENDBRANCH   2   9
TORSDOF 6
REMARK  Name = ../refined-set-2016/3o7u/3o7u_pocket.pdb
REMARK  141 active torsions:
REMARK  status: ('A' for Active; 'I' for Inactive)
REMARK    1  A    between atoms: _1  and  _3
REMARK    2  A    between atoms: _14  and  _17
REMARK    3  A    between atoms: _17  and  _18
REMARK    4  A    between atoms: _23  and  _24
REMARK    5  A    between atoms: _32  and  _34
REMARK    6  A    between atoms: _34  and  _35
REMARK    7  A    between atoms: _34  and  _37
REMARK    8  A    between atoms: _37  and  _38
REMARK    9  A    between atoms: _41  and  _43
REMARK   10  A    between atoms: _43  and  _44
REMARK   11  A    between atoms: _43  and  _46
REMARK   12  A    between atoms: _46  and  _47
REMARK   13  A    between atoms: _50  and  _52
REMARK   14  A    between atoms: _52  and  _53
REMARK   15  A    between atoms: _52  and  _55
REMARK   16  A    between atoms: _55  and  _56
REMARK   17  A    between atoms: _59  and  _61
REMARK   18  A    between atoms: _61  and  _62
REMARK   19  A    between atoms: _61  and  _64
REMARK   20  A    between atoms: _64  and  _65
REMARK   21  A    between atoms: _68  and  _70
REMARK   22  A    between atoms: _70  and  _71
REMARK   23  A    between atoms: _70  and  _73
REMARK   24  A    between atoms: _73  and  _74
REMARK   25  A    between atoms: _80  and  _82
REMARK   26  A    between atoms: _82  and  _83
REMARK   27  A    between atoms: _85  and  _87
REMARK   28  A    between atoms: _87  and  _88
REMARK   29  A    between atoms: _87  and  _90
REMARK   30  A    between atoms: _90  and  _91
REMARK   31  A    between atoms: _94  and  _96
REMARK   32  A    between atoms: _96  and  _97
REMARK   33  A    between atoms: _96  and  _99
REMARK   34  A    between atoms: _99  and  _100
REMARK   35  A    between atoms: _110  and  _112
REMARK   36  A    between atoms: _112  and  _113
REMARK   37  A    between atoms: _112  and  _115
REMARK   38  A    between atoms: _115  and  _116
REMARK   39  A    between atoms: _121  and  _123
REMARK   40  A    between atoms: _123  and  _124
REMARK   41  A    between atoms: _123  and  _126
REMARK   42  A    between atoms: _126  and  _127
REMARK   43  A    between atoms: _130  and  _132
REMARK   44  A    between atoms: _132  and  _133
REMARK   45  A    between atoms: _132  and  _135
REMARK   46  A    between atoms: _135  and  _136
REMARK   47  A    between atoms: _143  and  _144
REMARK   48  A    between atoms: _149  and  _151
REMARK   49  A    between atoms: _151  and  _152
REMARK   50  A    between atoms: _151  and  _154
REMARK   51  A    between atoms: _154  and  _155
REMARK   52  A    between atoms: _155  and  _156
REMARK   53  A    between atoms: _161  and  _163
REMARK   54  A    between atoms: _163  and  _164
REMARK   55  A    between atoms: _163  and  _166
REMARK   56  A    between atoms: _166  and  _167
REMARK   57  A    between atoms: _167  and  _168
REMARK   58  A    between atoms: _171  and  _173
REMARK   59  A    between atoms: _173  and  _174
REMARK   60  A    between atoms: _177  and  _179
REMARK   61  A    between atoms: _179  and  _180
REMARK   62  A    between atoms: _179  and  _182
REMARK   63  A    between atoms: _182  and  _183
REMARK   64  A    between atoms: _186  and  _188
REMARK   65  A    between atoms: _188  and  _189
REMARK   66  A    between atoms: _188  and  _191
REMARK   67  A    between atoms: _191  and  _192
REMARK   68  A    between atoms: _197  and  _199
REMARK   69  A    between atoms: _199  and  _200
REMARK   70  A    between atoms: _199  and  _202
REMARK   71  A    between atoms: _202  and  _203
REMARK   72  A    between atoms: _209  and  _211
REMARK   73  A    between atoms: _211  and  _212
REMARK   74  A    between atoms: _211  and  _214
REMARK   75  A    between atoms: _214  and  _215
REMARK   76  A    between atoms: _219  and  ZN_390
REMARK   77  A    between atoms: _220  and  _222
REMARK   78  A    between atoms: _222  and  _223
REMARK   79  A    between atoms: _222  and  _225
REMARK   80  A    between atoms: _227  and  _229
REMARK   81  A    between atoms: _229  and  _230
REMARK   82  A    between atoms: _229  and  _232
REMARK   83  A    between atoms: _232  and  _233
REMARK   84  A    between atoms: _233  and  _234
REMARK   85  A    between atoms: _237  and  _239
REMARK   86  A    between atoms: _239  and  _240
REMARK   87  A    between atoms: _239  and  _242
REMARK   88  A    between atoms: _242  and  _243
REMARK   89  A    between atoms: _245  and  _247
REMARK   90  A    between atoms: _247  and  _248
REMARK   91  A    between atoms: _247  and  _250
REMARK   92  A    between atoms: _250  and  _251
REMARK   93  A    between atoms: _256  and  _258
REMARK   94  A    between atoms: _258  and  _259
REMARK   95  A    between atoms: _258  and  _261
REMARK   96  A    between atoms: _261  and  _262
REMARK   97  A    between atoms: _267  and  _269
REMARK   98  A    between atoms: _269  and  _270
REMARK   99  A    between atoms: _269  and  _272
REMARK  100  A    between atoms: _275  and  _277
REMARK  101  A    between atoms: _277  and  _278
REMARK  102  A    between atoms: _277  and  _280
REMARK  103  A    between atoms: _280  and  _281
REMARK  104  A    between atoms: _286  and  _288
REMARK  105  A    between atoms: _288  and  _289
REMARK  106  A    between atoms: _288  and  _291
REMARK  107  A    between atoms: _291  and  _292
REMARK  108  A    between atoms: _295  and  _297
REMARK  109  A    between atoms: _297  and  _298
REMARK  110  A    between atoms: _297  and  _300
REMARK  111  A    between atoms: _300  and  _301
REMARK  112  A    between atoms: _301  and  _302
REMARK  113  A    between atoms: _307  and  _309
REMARK  114  A    between atoms: _309  and  _310
REMARK  115  A    between atoms: _309  and  _312
REMARK  116  A    between atoms: _312  and  _313
REMARK  117  A    between atoms: _318  and  _320
REMARK  118  A    between atoms: _320  and  _321
REMARK  119  A    between atoms: _320  and  _323
REMARK  120  A    between atoms: _323  and  _324
REMARK  121  A    between atoms: _327  and  _329
REMARK  122  A    between atoms: _329  and  _330
REMARK  123  A    between atoms: _329  and  _332
REMARK  124  A    between atoms: _332  and  _333
REMARK  125  A    between atoms: _336  and  _338
REMARK  126  A    between atoms: _338  and  _339
REMARK  127  A    between atoms: _338  and  _341
REMARK  128  A    between atoms: _344  and  _346
REMARK  129  A    between atoms: _346  and  _347
REMARK  130  A    between atoms: _346  and  _349
REMARK  131  A    between atoms: _349  and  _350
REMARK  132  A    between atoms: _354  and  _355
REMARK  133  A    between atoms: _360  and  _362
REMARK  134  A    between atoms: _362  and  _363
REMARK  135  A    between atoms: _362  and  _365
REMARK  136  A    between atoms: _365  and  _366
REMARK  137  A    between atoms: _376  and  _378
REMARK  138  A    between atoms: _378  and  _379
REMARK  139  A    between atoms: _378  and  _381
REMARK  140  A    between atoms: _381  and  _382
REMARK  141  A    between atoms: _387  and  _388
REMARK                            x       y       z     vdW  Elec       q    Type
REMARK                         _______ _______ _______ _____ _____    ______ ____
ROOT
ATOM      1  C   HIS A   1     -72.380  28.505 -12.841  0.00  0.00    +0.239 C 
ATOM      2  N   PHE A   2     -72.366  27.432 -12.045  0.00  0.00    -0.298 N 
ATOM      3  H   PHE A   2     -71.535  27.245 -11.448  0.00  0.00    +0.150 HD
ATOM      4  O   HIS A   1     -73.321  28.758 -13.586  0.00  0.00    -0.274 OA
ENDROOT
BRANCH   1   5
ATOM      5  CA  HIS A   1     -71.154  29.419 -12.820  0.00  0.00    +0.151 C 
BRANCH   5   6
ATOM      6  N   HIS A   1     -70.239  29.069 -11.727  0.00  0.00    -0.238 NA
ATOM      7  H   HIS A   1     -69.354  28.569 -11.946  0.00  0.00    +0.142 HD
ENDBRANCH   5   6
BRANCH   5   8
ATOM      8  CB  HIS A   1     -70.432  29.310 -14.165  0.00  0.00    +0.074 C 
BRANCH   8   9
ATOM      9  CG  HIS A   1     -69.832  27.961 -14.385  0.00  0.00    +0.082 A 
ATOM     10  ND1 HIS A   1     -68.676  27.559 -13.747  0.00  0.00    -0.227 NA
ATOM     11  CE1 HIS A   1     -68.412  26.307 -14.073  0.00  0.00    +0.199 A 
ATOM     12  NE2 HIS A   1     -69.363  25.879 -14.888  0.00  0.00    -0.221 NA
ATOM     13  CD2 HIS A   1     -70.269  26.892 -15.091  0.00  0.00    +0.115 A 
ENDBRANCH   8   9
ENDBRANCH   5   8
ENDBRANCH   1   5
BRANCH   2  14
ATOM     14  CA  PHE A   2     -73.506  26.519 -12.005  0.00  0.00    +0.141 C 
BRANCH  14  15
ATOM     15  C   PHE A   2     -74.376  26.799 -10.777  0.00  0.00    +0.227 C 
ATOM     16  O   PHE A   2     -75.489  26.279 -10.678  0.00  0.00    -0.286 OA
ENDBRANCH  14  15
BRANCH  14  17
ATOM     17  CB  PHE A   2     -73.053  25.036 -12.053  0.00  0.00    +0.054 C 
BRANCH  17  18
ATOM     18  CG  PHE A   2     -74.173  24.042 -12.356  0.00  0.00    -0.020 A 
ATOM     19  CD2 PHE A   2     -74.589  23.129 -11.389  0.00  0.00    -0.004 A 
ATOM     20  CE2 PHE A   2     -75.609  22.205 -11.663  0.00  0.00    -0.000 A 
ATOM     21  CZ  PHE A   2     -76.209  22.174 -12.911  0.00  0.00    -0.000 A 
ATOM     22  CE1 PHE A   2     -75.803  23.082 -13.884  0.00  0.00    -0.000 A 
ATOM     23  CD1 PHE A   2     -74.784  24.003 -13.600  0.00  0.00    -0.004 A 
ENDBRANCH  17  18
ENDBRANCH  14  17
ENDBRANCH   2  14
TORSDOF 8
REMARK  Name = ../refined-set-2016/3o7u/3o7u_pocket.pdb
REMARK  141 active torsions:
REMARK  status: ('A' for Active; 'I' for Inactive)
REMARK    1  A    between atoms: _1  and  _3
REMARK    2  A    between atoms: _14  and  _17
REMARK    3  A    between atoms: _17  and  _18
REMARK    4  A    between atoms: _23  and  _24
REMARK    5  A    between atoms: _32  and  _34
REMARK    6  A    between atoms: _34  and  _35
REMARK    7  A    between atoms: _34  and  _37
REMARK    8  A    between atoms: _37  and  _38
REMARK    9  A    between atoms: _41  and  _43
REMARK   10  A    between atoms: _43  and  _44
REMARK   11  A    between atoms: _43  and  _46
REMARK   12  A    between atoms: _46  and  _47
REMARK   13  A    between atoms: _50  and  _52
REMARK   14  A    between atoms: _52  and  _53
REMARK   15  A    between atoms: _52  and  _55
REMARK   16  A    between atoms: _55  and  _56
REMARK   17  A    between atoms: _59  and  _61
REMARK   18  A    between atoms: _61  and  _62
REMARK   19  A    between atoms: _61  and  _64
REMARK   20  A    between atoms: _64  and  _65
REMARK   21  A    between atoms: _68  and  _70
REMARK   22  A    between atoms: _70  and  _71
REMARK   23  A    between atoms: _70  and  _73
REMARK   24  A    between atoms: _73  and  _74
REMARK   25  A    between atoms: _80  and  _82
REMARK   26  A    between atoms: _82  and  _83
REMARK   27  A    between atoms: _85  and  _87
REMARK   28  A    between atoms: _87  and  _88
REMARK   29  A    between atoms: _87  and  _90
REMARK   30  A    between atoms: _90  and  _91
REMARK   31  A    between atoms: _94  and  _96
REMARK   32  A    between atoms: _96  and  _97
REMARK   33  A    between atoms: _96  and  _99
REMARK   34  A    between atoms: _99  and  _100
REMARK   35  A    between atoms: _110  and  _112
REMARK   36  A    between atoms: _112  and  _113
REMARK   37  A    between atoms: _112  and  _115
REMARK   38  A    between atoms: _115  and  _116
REMARK   39  A    between atoms: _121  and  _123
REMARK   40  A    between atoms: _123  and  _124
REMARK   41  A    between atoms: _123  and  _126
REMARK   42  A    between atoms: _126  and  _127
REMARK   43  A    between atoms: _130  and  _132
REMARK   44  A    between atoms: _132  and  _133
REMARK   45  A    between atoms: _132  and  _135
REMARK   46  A    between atoms: _135  and  _136
REMARK   47  A    between atoms: _143  and  _144
REMARK   48  A    between atoms: _149  and  _151
REMARK   49  A    between atoms: _151  and  _152
REMARK   50  A    between atoms: _151  and  _154
REMARK   51  A    between atoms: _154  and  _155
REMARK   52  A    between atoms: _155  and  _156
REMARK   53  A    between atoms: _161  and  _163
REMARK   54  A    between atoms: _163  and  _164
REMARK   55  A    between atoms: _163  and  _166
REMARK   56  A    between atoms: _166  and  _167
REMARK   57  A    between atoms: _167  and  _168
REMARK   58  A    between atoms: _171  and  _173
REMARK   59  A    between atoms: _173  and  _174
REMARK   60  A    between atoms: _177  and  _179
REMARK   61  A    between atoms: _179  and  _180
REMARK   62  A    between atoms: _179  and  _182
REMARK   63  A    between atoms: _182  and  _183
REMARK   64  A    between atoms: _186  and  _188
REMARK   65  A    between atoms: _188  and  _189
REMARK   66  A    between atoms: _188  and  _191
REMARK   67  A    between atoms: _191  and  _192
REMARK   68  A    between atoms: _197  and  _199
REMARK   69  A    between atoms: _199  and  _200
REMARK   70  A    between atoms: _199  and  _202
REMARK   71  A    between atoms: _202  and  _203
REMARK   72  A    between atoms: _209  and  _211
REMARK   73  A    between atoms: _211  and  _212
REMARK   74  A    between atoms: _211  and  _214
REMARK   75  A    between atoms: _214  and  _215
REMARK   76  A    between atoms: _219  and  ZN_390
REMARK   77  A    between atoms: _220  and  _222
REMARK   78  A    between atoms: _222  and  _223
REMARK   79  A    between atoms: _222  and  _225
REMARK   80  A    between atoms: _227  and  _229
REMARK   81  A    between atoms: _229  and  _230
REMARK   82  A    between atoms: _229  and  _232
REMARK   83  A    between atoms: _232  and  _233
REMARK   84  A    between atoms: _233  and  _234
REMARK   85  A    between atoms: _237  and  _239
REMARK   86  A    between atoms: _239  and  _240
REMARK   87  A    between atoms: _239  and  _242
REMARK   88  A    between atoms: _242  and  _243
REMARK   89  A    between atoms: _245  and  _247
REMARK   90  A    between atoms: _247  and  _248
REMARK   91  A    between atoms: _247  and  _250
REMARK   92  A    between atoms: _250  and  _251
REMARK   93  A    between atoms: _256  and  _258
REMARK   94  A    between atoms: _258  and  _259
REMARK   95  A    between atoms: _258  and  _261
REMARK   96  A    between atoms: _261  and  _262
REMARK   97  A    between atoms: _267  and  _269
REMARK   98  A    between atoms: _269  and  _270
REMARK   99  A    between atoms: _269  and  _272
REMARK  100  A    between atoms: _275  and  _277
REMARK  101  A    between atoms: _277  and  _278
REMARK  102  A    between atoms: _277  and  _280
REMARK  103  A    between atoms: _280  and  _281
REMARK  104  A    between atoms: _286  and  _288
REMARK  105  A    between atoms: _288  and  _289
REMARK  106  A    between atoms: _288  and  _291
REMARK  107  A    between atoms: _291  and  _292
REMARK  108  A    between atoms: _295  and  _297
REMARK  109  A    between atoms: _297  and  _298
REMARK  110  A    between atoms: _297  and  _300
REMARK  111  A    between atoms: _300  and  _301
REMARK  112  A    between atoms: _301  and  _302
REMARK  113  A    between atoms: _307  and  _309
REMARK  114  A    between atoms: _309  and  _310
REMARK  115  A    between atoms: _309  and  _312
REMARK  116  A    between atoms: _312  and  _313
REMARK  117  A    between atoms: _318  and  _320
REMARK  118  A    between atoms: _320  and  _321
REMARK  119  A    between atoms: _320  and  _323
REMARK  120  A    between atoms: _323  and  _324
REMARK  121  A    between atoms: _327  and  _329
REMARK  122  A    between atoms: _329  and  _330
REMARK  123  A    between atoms: _329  and  _332
REMARK  124  A    between atoms: _332  and  _333
REMARK  125  A    between atoms: _336  and  _338
REMARK  126  A    between atoms: _338  and  _339
REMARK  127  A    between atoms: _338  and  _341
REMARK  128  A    between atoms: _344  and  _346
REMARK  129  A    between atoms: _346  and  _347
REMARK  130  A    between atoms: _346  and  _349
REMARK  131  A    between atoms: _349  and  _350
REMARK  132  A    between atoms: _354  and  _355
REMARK  133  A    between atoms: _360  and  _362
REMARK  134  A    between atoms: _362  and  _363
REMARK  135  A    between atoms: _362  and  _365
REMARK  136  A    between atoms: _365  and  _366
REMARK  137  A    between atoms: _376  and  _378
REMARK  138  A    between atoms: _378  and  _379
REMARK  139  A    between atoms: _378  and  _381
REMARK  140  A    between atoms: _381  and  _382
REMARK  141  A    between atoms: _387  and  _388
REMARK                            x       y       z     vdW  Elec       q    Type
REMARK                         _______ _______ _______ _____ _____    ______ ____
ROOT
ATOM      1  CA  GLU A   1     -67.182  26.766 -18.096  0.00  0.00    +0.134 C 
ENDROOT
BRANCH   1   2
ATOM      2  N   GLU A   1     -67.100  27.691 -16.975  0.00  0.00    -0.239 NA
ATOM      3  H   GLU A   1     -67.377  27.376 -16.023  0.00  0.00    +0.142 HD
ENDBRANCH   1   2
BRANCH   1   4
ATOM      4  C   GLU A   1     -68.515  26.993 -18.810  0.00  0.00    +0.224 C 
ATOM      5  O   GLU A   1     -69.442  26.190 -18.708  0.00  0.00    -0.287 OA
ENDBRANCH   1   4
BRANCH   1   6
ATOM      6  CB  GLU A   1     -67.065  25.303 -17.643  0.00  0.00    +0.037 C 
BRANCH   6   7
ATOM      7  CG  GLU A   1     -66.942  24.348 -18.834  0.00  0.00    +0.116 C 
BRANCH   7   8
ATOM      8  CD  GLU A   1     -67.062  22.869 -18.451  0.00  0.00    +0.365 C 
ATOM      9  OE2 GLU A   1     -67.267  22.545 -17.249  0.00  0.00    -0.246 OA
ATOM     10  OE1 GLU A   1     -66.949  22.033 -19.372  0.00  0.00    -0.246 OA
ENDBRANCH   7   8
ENDBRANCH   6   7
ENDBRANCH   1   6
TORSDOF 5
REMARK  Name = ../refined-set-2016/3o7u/3o7u_pocket.pdb
REMARK  141 active torsions:
REMARK  status: ('A' for Active; 'I' for Inactive)
REMARK    1  A    between atoms: _1  and  _3
REMARK    2  A    between atoms: _14  and  _17
REMARK    3  A    between atoms: _17  and  _18
REMARK    4  A    between atoms: _23  and  _24
REMARK    5  A    between atoms: _32  and  _34
REMARK    6  A    between atoms: _34  and  _35
REMARK    7  A    between atoms: _34  and  _37
REMARK    8  A    between atoms: _37  and  _38
REMARK    9  A    between atoms: _41  and  _43
REMARK   10  A    between atoms: _43  and  _44
REMARK   11  A    between atoms: _43  and  _46
REMARK   12  A    between atoms: _46  and  _47
REMARK   13  A    between atoms: _50  and  _52
REMARK   14  A    between atoms: _52  and  _53
REMARK   15  A    between atoms: _52  and  _55
REMARK   16  A    between atoms: _55  and  _56
REMARK   17  A    between atoms: _59  and  _61
REMARK   18  A    between atoms: _61  and  _62
REMARK   19  A    between atoms: _61  and  _64
REMARK   20  A    between atoms: _64  and  _65
REMARK   21  A    between atoms: _68  and  _70
REMARK   22  A    between atoms: _70  and  _71
REMARK   23  A    between atoms: _70  and  _73
REMARK   24  A    between atoms: _73  and  _74
REMARK   25  A    between atoms: _80  and  _82
REMARK   26  A    between atoms: _82  and  _83
REMARK   27  A    between atoms: _85  and  _87
REMARK   28  A    between atoms: _87  and  _88
REMARK   29  A    between atoms: _87  and  _90
REMARK   30  A    between atoms: _90  and  _91
REMARK   31  A    between atoms: _94  and  _96
REMARK   32  A    between atoms: _96  and  _97
REMARK   33  A    between atoms: _96  and  _99
REMARK   34  A    between atoms: _99  and  _100
REMARK   35  A    between atoms: _110  and  _112
REMARK   36  A    between atoms: _112  and  _113
REMARK   37  A    between atoms: _112  and  _115
REMARK   38  A    between atoms: _115  and  _116
REMARK   39  A    between atoms: _121  and  _123
REMARK   40  A    between atoms: _123  and  _124
REMARK   41  A    between atoms: _123  and  _126
REMARK   42  A    between atoms: _126  and  _127
REMARK   43  A    between atoms: _130  and  _132
REMARK   44  A    between atoms: _132  and  _133
REMARK   45  A    between atoms: _132  and  _135
REMARK   46  A    between atoms: _135  and  _136
REMARK   47  A    between atoms: _143  and  _144
REMARK   48  A    between atoms: _149  and  _151
REMARK   49  A    between atoms: _151  and  _152
REMARK   50  A    between atoms: _151  and  _154
REMARK   51  A    between atoms: _154  and  _155
REMARK   52  A    between atoms: _155  and  _156
REMARK   53  A    between atoms: _161  and  _163
REMARK   54  A    between atoms: _163  and  _164
REMARK   55  A    between atoms: _163  and  _166
REMARK   56  A    between atoms: _166  and  _167
REMARK   57  A    between atoms: _167  and  _168
REMARK   58  A    between atoms: _171  and  _173
REMARK   59  A    between atoms: _173  and  _174
REMARK   60  A    between atoms: _177  and  _179
REMARK   61  A    between atoms: _179  and  _180
REMARK   62  A    between atoms: _179  and  _182
REMARK   63  A    between atoms: _182  and  _183
REMARK   64  A    between atoms: _186  and  _188
REMARK   65  A    between atoms: _188  and  _189
REMARK   66  A    between atoms: _188  and  _191
REMARK   67  A    between atoms: _191  and  _192
REMARK   68  A    between atoms: _197  and  _199
REMARK   69  A    between atoms: _199  and  _200
REMARK   70  A    between atoms: _199  and  _202
REMARK   71  A    between atoms: _202  and  _203
REMARK   72  A    between atoms: _209  and  _211
REMARK   73  A    between atoms: _211  and  _212
REMARK   74  A    between atoms: _211  and  _214
REMARK   75  A    between atoms: _214  and  _215
REMARK   76  A    between atoms: _219  and  ZN_390
REMARK   77  A    between atoms: _220  and  _222
REMARK   78  A    between atoms: _222  and  _223
REMARK   79  A    between atoms: _222  and  _225
REMARK   80  A    between atoms: _227  and  _229
REMARK   81  A    between atoms: _229  and  _230
REMARK   82  A    between atoms: _229  and  _232
REMARK   83  A    between atoms: _232  and  _233
REMARK   84  A    between atoms: _233  and  _234
REMARK   85  A    between atoms: _237  and  _239
REMARK   86  A    between atoms: _239  and  _240
REMARK   87  A    between atoms: _239  and  _242
REMARK   88  A    between atoms: _242  and  _243
REMARK   89  A    between atoms: _245  and  _247
REMARK   90  A    between atoms: _247  and  _248
REMARK   91  A    between atoms: _247  and  _250
REMARK   92  A    between atoms: _250  and  _251
REMARK   93  A    between atoms: _256  and  _258
REMARK   94  A    between atoms: _258  and  _259
REMARK   95  A    between atoms: _258  and  _261
REMARK   96  A    between atoms: _261  and  _262
REMARK   97  A    between atoms: _267  and  _269
REMARK   98  A    between atoms: _269  and  _270
REMARK   99  A    between atoms: _269  and  _272
REMARK  100  A    between atoms: _275  and  _277
REMARK  101  A    between atoms: _277  and  _278
REMARK  102  A    between atoms: _277  and  _280
REMARK  103  A    between atoms: _280  and  _281
REMARK  104  A    between atoms: _286  and  _288
REMARK  105  A    between atoms: _288  and  _289
REMARK  106  A    between atoms: _288  and  _291
REMARK  107  A    between atoms: _291  and  _292
REMARK  108  A    between atoms: _295  and  _297
REMARK  109  A    between atoms: _297  and  _298
REMARK  110  A    between atoms: _297  and  _300
REMARK  111  A    between atoms: _300  and  _301
REMARK  112  A    between atoms: _301  and  _302
REMARK  113  A    between atoms: _307  and  _309
REMARK  114  A    between atoms: _309  and  _310
REMARK  115  A    between atoms: _309  and  _312
REMARK  116  A    between atoms: _312  and  _313
REMARK  117  A    between atoms: _318  and  _320
REMARK  118  A    between atoms: _320  and  _321
REMARK  119  A    between atoms: _320  and  _323
REMARK  120  A    between atoms: _323  and  _324
REMARK  121  A    between atoms: _327  and  _329
REMARK  122  A    between atoms: _329  and  _330
REMARK  123  A    between atoms: _329  and  _332
REMARK  124  A    between atoms: _332  and  _333
REMARK  125  A    between atoms: _336  and  _338
REMARK  126  A    between atoms: _338  and  _339
REMARK  127  A    between atoms: _338  and  _341
REMARK  128  A    between atoms: _344  and  _346
REMARK  129  A    between atoms: _346  and  _347
REMARK  130  A    between atoms: _346  and  _349
REMARK  131  A    between atoms: _349  and  _350
REMARK  132  A    between atoms: _354  and  _355
REMARK  133  A    between atoms: _360  and  _362
REMARK  134  A    between atoms: _362  and  _363
REMARK  135  A    between atoms: _362  and  _365
REMARK  136  A    between atoms: _365  and  _366
REMARK  137  A    between atoms: _376  and  _378
REMARK  138  A    between atoms: _378  and  _379
REMARK  139  A    between atoms: _378  and  _381
REMARK  140  A    between atoms: _381  and  _382
REMARK  141  A    between atoms: _387  and  _388
REMARK                            x       y       z     vdW  Elec       q    Type
REMARK                         _______ _______ _______ _____ _____    ______ ____
ROOT
ATOM      1  C   SER A   1     -61.047  25.478 -15.836  0.00  0.00    +0.241 C 
ATOM      2  O   SER A   1     -62.007  26.116 -15.405  0.00  0.00    -0.274 OA
ATOM      3  N   HIS A   2     -60.839  25.209 -17.120  0.00  0.00    -0.298 N 
ATOM      4  H   HIS A   2     -59.979  24.678 -17.366  0.00  0.00    +0.150 HD
ENDROOT
BRANCH   1   5
ATOM      5  CA  SER A   1     -60.007  24.905 -14.880  0.00  0.00    +0.174 C 
BRANCH   5   6
ATOM      6  N   SER A   1     -59.804  25.775 -13.724  0.00  0.00    -0.236 NA
ATOM      7  H   SER A   1     -60.381  25.627 -12.872  0.00  0.00    +0.142 HD
ENDBRANCH   5   6
BRANCH   5   8
ATOM      8  CB  SER A   1     -60.450  23.506 -14.439  0.00  0.00    +0.163 C 
BRANCH   8   9
ATOM      9  OG  SER A   1     -59.386  22.821 -13.792  0.00  0.00    -0.380 OA
ATOM     10  H   SER A   1     -59.102  23.333 -12.994  0.00  0.00    +0.211 HD
ENDBRANCH   8   9
ENDBRANCH   5   8
ENDBRANCH   1   5
BRANCH   3  11
ATOM     11  CA  HIS A   2     -61.733  25.605 -18.221  0.00  0.00    +0.143 C 
BRANCH  11  12
ATOM     12  C   HIS A   2     -61.637  27.083 -18.600  0.00  0.00    +0.227 C 
ATOM     13  O   HIS A   2     -61.083  27.415 -19.649  0.00  0.00    -0.286 OA
ENDBRANCH  11  12
BRANCH  11  14
ATOM     14  CB  HIS A   2     -63.199  25.226 -17.921  0.00  0.00    +0.075 C 
BRANCH  14  15
ATOM     15  CG  HIS A   2     -63.472  23.756 -18.026  0.00  0.00    +0.082 A 
ATOM     16  CD2 HIS A   2     -63.842  22.848 -17.089  0.00  0.00    +0.115 A 
ATOM     17  NE2 HIS A   2     -63.962  21.635 -17.728  0.00  0.00    -0.221 NA
ATOM     18  CE1 HIS A   2     -63.666  21.791 -19.004  0.00  0.00    +0.199 A 
ATOM     19  ND1 HIS A   2     -63.379  23.063 -19.215  0.00  0.00    -0.227 NA
ENDBRANCH  14  15
ENDBRANCH  11  14
ENDBRANCH   3  11
TORSDOF 8
REMARK  Name = ../refined-set-2016/3o7u/3o7u_pocket.pdb
REMARK  141 active torsions:
REMARK  status: ('A' for Active; 'I' for Inactive)
REMARK    1  A    between atoms: _1  and  _3
REMARK    2  A    between atoms: _14  and  _17
REMARK    3  A    between atoms: _17  and  _18
REMARK    4  A    between atoms: _23  and  _24
REMARK    5  A    between atoms: _32  and  _34
REMARK    6  A    between atoms: _34  and  _35
REMARK    7  A    between atoms: _34  and  _37
REMARK    8  A    between atoms: _37  and  _38
REMARK    9  A    between atoms: _41  and  _43
REMARK   10  A    between atoms: _43  and  _44
REMARK   11  A    between atoms: _43  and  _46
REMARK   12  A    between atoms: _46  and  _47
REMARK   13  A    between atoms: _50  and  _52
REMARK   14  A    between atoms: _52  and  _53
REMARK   15  A    between atoms: _52  and  _55
REMARK   16  A    between atoms: _55  and  _56
REMARK   17  A    between atoms: _59  and  _61
REMARK   18  A    between atoms: _61  and  _62
REMARK   19  A    between atoms: _61  and  _64
REMARK   20  A    between atoms: _64  and  _65
REMARK   21  A    between atoms: _68  and  _70
REMARK   22  A    between atoms: _70  and  _71
REMARK   23  A    between atoms: _70  and  _73
REMARK   24  A    between atoms: _73  and  _74
REMARK   25  A    between atoms: _80  and  _82
REMARK   26  A    between atoms: _82  and  _83
REMARK   27  A    between atoms: _85  and  _87
REMARK   28  A    between atoms: _87  and  _88
REMARK   29  A    between atoms: _87  and  _90
REMARK   30  A    between atoms: _90  and  _91
REMARK   31  A    between atoms: _94  and  _96
REMARK   32  A    between atoms: _96  and  _97
REMARK   33  A    between atoms: _96  and  _99
REMARK   34  A    between atoms: _99  and  _100
REMARK   35  A    between atoms: _110  and  _112
REMARK   36  A    between atoms: _112  and  _113
REMARK   37  A    between atoms: _112  and  _115
REMARK   38  A    between atoms: _115  and  _116
REMARK   39  A    between atoms: _121  and  _123
REMARK   40  A    between atoms: _123  and  _124
REMARK   41  A    between atoms: _123  and  _126
REMARK   42  A    between atoms: _126  and  _127
REMARK   43  A    between atoms: _130  and  _132
REMARK   44  A    between atoms: _132  and  _133
REMARK   45  A    between atoms: _132  and  _135
REMARK   46  A    between atoms: _135  and  _136
REMARK   47  A    between atoms: _143  and  _144
REMARK   48  A    between atoms: _149  and  _151
REMARK   49  A    between atoms: _151  and  _152
REMARK   50  A    between atoms: _151  and  _154
REMARK   51  A    between atoms: _154  and  _155
REMARK   52  A    between atoms: _155  and  _156
REMARK   53  A    between atoms: _161  and  _163
REMARK   54  A    between atoms: _163  and  _164
REMARK   55  A    between atoms: _163  and  _166
REMARK   56  A    between atoms: _166  and  _167
REMARK   57  A    between atoms: _167  and  _168
REMARK   58  A    between atoms: _171  and  _173
REMARK   59  A    between atoms: _173  and  _174
REMARK   60  A    between atoms: _177  and  _179
REMARK   61  A    between atoms: _179  and  _180
REMARK   62  A    between atoms: _179  and  _182
REMARK   63  A    between atoms: _182  and  _183
REMARK   64  A    between atoms: _186  and  _188
REMARK   65  A    between atoms: _188  and  _189
REMARK   66  A    between atoms: _188  and  _191
REMARK   67  A    between atoms: _191  and  _192
REMARK   68  A    between atoms: _197  and  _199
REMARK   69  A    between atoms: _199  and  _200
REMARK   70  A    between atoms: _199  and  _202
REMARK   71  A    between atoms: _202  and  _203
REMARK   72  A    between atoms: _209  and  _211
REMARK   73  A    between atoms: _211  and  _212
REMARK   74  A    between atoms: _211  and  _214
REMARK   75  A    between atoms: _214  and  _215
REMARK   76  A    between atoms: _219  and  ZN_390
REMARK   77  A    between atoms: _220  and  _222
REMARK   78  A    between atoms: _222  and  _223
REMARK   79  A    between atoms: _222  and  _225
REMARK   80  A    between atoms: _227  and  _229
REMARK   81  A    between atoms: _229  and  _230
REMARK   82  A    between atoms: _229  and  _232
REMARK   83  A    between atoms: _232  and  _233
REMARK   84  A    between atoms: _233  and  _234
REMARK   85  A    between atoms: _237  and  _239
REMARK   86  A    between atoms: _239  and  _240
REMARK   87  A    between atoms: _239  and  _242
REMARK   88  A    between atoms: _242  and  _243
REMARK   89  A    between atoms: _245  and  _247
REMARK   90  A    between atoms: _247  and  _248
REMARK   91  A    between atoms: _247  and  _250
REMARK   92  A    between atoms: _250  and  _251
REMARK   93  A    between atoms: _256  and  _258
REMARK   94  A    between atoms: _258  and  _259
REMARK   95  A    between atoms: _258  and  _261
REMARK   96  A    between atoms: _261  and  _262
REMARK   97  A    between atoms: _267  and  _269
REMARK   98  A    between atoms: _269  and  _270
REMARK   99  A    between atoms: _269  and  _272
REMARK  100  A    between atoms: _275  and  _277
REMARK  101  A    between atoms: _277  and  _278
REMARK  102  A    between atoms: _277  and  _280
REMARK  103  A    between atoms: _280  and  _281
REMARK  104  A    between atoms: _286  and  _288
REMARK  105  A    between atoms: _288  and  _289
REMARK  106  A    between atoms: _288  and  _291
REMARK  107  A    between atoms: _291  and  _292
REMARK  108  A    between atoms: _295  and  _297
REMARK  109  A    between atoms: _297  and  _298
REMARK  110  A    between atoms: _297  and  _300
REMARK  111  A    between atoms: _300  and  _301
REMARK  112  A    between atoms: _301  and  _302
REMARK  113  A    between atoms: _307  and  _309
REMARK  114  A    between atoms: _309  and  _310
REMARK  115  A    between atoms: _309  and  _312
REMARK  116  A    between atoms: _312  and  _313
REMARK  117  A    between atoms: _318  and  _320
REMARK  118  A    between atoms: _320  and  _321
REMARK  119  A    between atoms: _320  and  _323
REMARK  120  A    between atoms: _323  and  _324
REMARK  121  A    between atoms: _327  and  _329
REMARK  122  A    between atoms: _329  and  _330
REMARK  123  A    between atoms: _329  and  _332
REMARK  124  A    between atoms: _332  and  _333
REMARK  125  A    between atoms: _336  and  _338
REMARK  126  A    between atoms: _338  and  _339
REMARK  127  A    between atoms: _338  and  _341
REMARK  128  A    between atoms: _344  and  _346
REMARK  129  A    between atoms: _346  and  _347
REMARK  130  A    between atoms: _346  and  _349
REMARK  131  A    between atoms: _349  and  _350
REMARK  132  A    between atoms: _354  and  _355
REMARK  133  A    between atoms: _360  and  _362
REMARK  134  A    between atoms: _362  and  _363
REMARK  135  A    between atoms: _362  and  _365
REMARK  136  A    between atoms: _365  and  _366
REMARK  137  A    between atoms: _376  and  _378
REMARK  138  A    between atoms: _378  and  _379
REMARK  139  A    between atoms: _378  and  _381
REMARK  140  A    between atoms: _381  and  _382
REMARK  141  A    between atoms: _387  and  _388
REMARK                            x       y       z     vdW  Elec       q    Type
REMARK                         _______ _______ _______ _____ _____    ______ ____
ROOT
ATOM      1  CB  ASN A   1     -60.509  20.293 -20.933  0.00  0.00    +0.110 C 
ENDROOT
BRANCH   1   2
ATOM      2  CG  ASN A   1     -60.013  20.262 -19.485  0.00  0.00    +0.221 C 
ATOM      3  OD1 ASN A   1     -60.691  20.747 -18.573  0.00  0.00    -0.275 OA
ATOM      4  ND2 ASN A   1     -58.836  19.704 -19.269  0.00  0.00    -0.329 N 
ATOM      5 HD21 ASN A   1     -58.450  19.662 -18.304  0.00  0.00    +0.145 HD
ATOM      6 HD22 ASN A   1     -58.295  19.307 -20.064  0.00  0.00    +0.145 HD
ENDBRANCH   1   2
BRANCH   1   7
ATOM      7  CA  ASN A   1     -59.454  20.841 -21.925  0.00  0.00    +0.142 C 
BRANCH   7   8
ATOM      8  N   ASN A   1     -59.120  22.230 -21.607  0.00  0.00    -0.239 NA
ATOM      9  H   ASN A   1     -59.846  22.965 -21.728  0.00  0.00    +0.142 HD
ENDBRANCH   7   8
BRANCH   7  10
ATOM     10  C   ASN A   1     -59.991  20.758 -23.357  0.00  0.00    +0.225 C 
ATOM     11  O   ASN A   1     -61.193  20.669 -23.561  0.00  0.00    -0.287 OA
ENDBRANCH   7  10
ENDBRANCH   1   7
TORSDOF 4
REMARK  Name = ../refined-set-2016/3o7u/3o7u_pocket.pdb
REMARK  141 active torsions:
REMARK  status: ('A' for Active; 'I' for Inactive)
REMARK    1  A    between atoms: _1  and  _3
REMARK    2  A    between atoms: _14  and  _17
REMARK    3  A    between atoms: _17  and  _18
REMARK    4  A    between atoms: _23  and  _24
REMARK    5  A    between atoms: _32  and  _34
REMARK    6  A    between atoms: _34  and  _35
REMARK    7  A    between atoms: _34  and  _37
REMARK    8  A    between atoms: _37  and  _38
REMARK    9  A    between atoms: _41  and  _43
REMARK   10  A    between atoms: _43  and  _44
REMARK   11  A    between atoms: _43  and  _46
REMARK   12  A    between atoms: _46  and  _47
REMARK   13  A    between atoms: _50  and  _52
REMARK   14  A    between atoms: _52  and  _53
REMARK   15  A    between atoms: _52  and  _55
REMARK   16  A    between atoms: _55  and  _56
REMARK   17  A    between atoms: _59  and  _61
REMARK   18  A    between atoms: _61  and  _62
REMARK   19  A    between atoms: _61  and  _64
REMARK   20  A    between atoms: _64  and  _65
REMARK   21  A    between atoms: _68  and  _70
REMARK   22  A    between atoms: _70  and  _71
REMARK   23  A    between atoms: _70  and  _73
REMARK   24  A    between atoms: _73  and  _74
REMARK   25  A    between atoms: _80  and  _82
REMARK   26  A    between atoms: _82  and  _83
REMARK   27  A    between atoms: _85  and  _87
REMARK   28  A    between atoms: _87  and  _88
REMARK   29  A    between atoms: _87  and  _90
REMARK   30  A    between atoms: _90  and  _91
REMARK   31  A    between atoms: _94  and  _96
REMARK   32  A    between atoms: _96  and  _97
REMARK   33  A    between atoms: _96  and  _99
REMARK   34  A    between atoms: _99  and  _100
REMARK   35  A    between atoms: _110  and  _112
REMARK   36  A    between atoms: _112  and  _113
REMARK   37  A    between atoms: _112  and  _115
REMARK   38  A    between atoms: _115  and  _116
REMARK   39  A    between atoms: _121  and  _123
REMARK   40  A    between atoms: _123  and  _124
REMARK   41  A    between atoms: _123  and  _126
REMARK   42  A    between atoms: _126  and  _127
REMARK   43  A    between atoms: _130  and  _132
REMARK   44  A    between atoms: _132  and  _133
REMARK   45  A    between atoms: _132  and  _135
REMARK   46  A    between atoms: _135  and  _136
REMARK   47  A    between atoms: _143  and  _144
REMARK   48  A    between atoms: _149  and  _151
REMARK   49  A    between atoms: _151  and  _152
REMARK   50  A    between atoms: _151  and  _154
REMARK   51  A    between atoms: _154  and  _155
REMARK   52  A    between atoms: _155  and  _156
REMARK   53  A    between atoms: _161  and  _163
REMARK   54  A    between atoms: _163  and  _164
REMARK   55  A    between atoms: _163  and  _166
REMARK   56  A    between atoms: _166  and  _167
REMARK   57  A    between atoms: _167  and  _168
REMARK   58  A    between atoms: _171  and  _173
REMARK   59  A    between atoms: _173  and  _174
REMARK   60  A    between atoms: _177  and  _179
REMARK   61  A    between atoms: _179  and  _180
REMARK   62  A    between atoms: _179  and  _182
REMARK   63  A    between atoms: _182  and  _183
REMARK   64  A    between atoms: _186  and  _188
REMARK   65  A    between atoms: _188  and  _189
REMARK   66  A    between atoms: _188  and  _191
REMARK   67  A    between atoms: _191  and  _192
REMARK   68  A    between atoms: _197  and  _199
REMARK   69  A    between atoms: _199  and  _200
REMARK   70  A    between atoms: _199  and  _202
REMARK   71  A    between atoms: _202  and  _203
REMARK   72  A    between atoms: _209  and  _211
REMARK   73  A    between atoms: _211  and  _212
REMARK   74  A    between atoms: _211  and  _214
REMARK   75  A    between atoms: _214  and  _215
REMARK   76  A    between atoms: _219  and  ZN_390
REMARK   77  A    between atoms: _220  and  _222
REMARK   78  A    between atoms: _222  and  _223
REMARK   79  A    between atoms: _222  and  _225
REMARK   80  A    between atoms: _227  and  _229
REMARK   81  A    between atoms: _229  and  _230
REMARK   82  A    between atoms: _229  and  _232
REMARK   83  A    between atoms: _232  and  _233
REMARK   84  A    between atoms: _233  and  _234
REMARK   85  A    between atoms: _237  and  _239
REMARK   86  A    between atoms: _239  and  _240
REMARK   87  A    between atoms: _239  and  _242
REMARK   88  A    between atoms: _242  and  _243
REMARK   89  A    between atoms: _245  and  _247
REMARK   90  A    between atoms: _247  and  _248
REMARK   91  A    between atoms: _247  and  _250
REMARK   92  A    between atoms: _250  and  _251
REMARK   93  A    between atoms: _256  and  _258
REMARK   94  A    between atoms: _258  and  _259
REMARK   95  A    between atoms: _258  and  _261
REMARK   96  A    between atoms: _261  and  _262
REMARK   97  A    between atoms: _267  and  _269
REMARK   98  A    between atoms: _269  and  _270
REMARK   99  A    between atoms: _269  and  _272
REMARK  100  A    between atoms: _275  and  _277
REMARK  101  A    between atoms: _277  and  _278
REMARK  102  A    between atoms: _277  and  _280
REMARK  103  A    between atoms: _280  and  _281
REMARK  104  A    between atoms: _286  and  _288
REMARK  105  A    between atoms: _288  and  _289
REMARK  106  A    between atoms: _288  and  _291
REMARK  107  A    between atoms: _291  and  _292
REMARK  108  A    between atoms: _295  and  _297
REMARK  109  A    between atoms: _297  and  _298
REMARK  110  A    between atoms: _297  and  _300
REMARK  111  A    between atoms: _300  and  _301
REMARK  112  A    between atoms: _301  and  _302
REMARK  113  A    between atoms: _307  and  _309
REMARK  114  A    between atoms: _309  and  _310
REMARK  115  A    between atoms: _309  and  _312
REMARK  116  A    between atoms: _312  and  _313
REMARK  117  A    between atoms: _318  and  _320
REMARK  118  A    between atoms: _320  and  _321
REMARK  119  A    between atoms: _320  and  _323
REMARK  120  A    between atoms: _323  and  _324
REMARK  121  A    between atoms: _327  and  _329
REMARK  122  A    between atoms: _329  and  _330
REMARK  123  A    between atoms: _329  and  _332
REMARK  124  A    between atoms: _332  and  _333
REMARK  125  A    between atoms: _336  and  _338
REMARK  126  A    between atoms: _338  and  _339
REMARK  127  A    between atoms: _338  and  _341
REMARK  128  A    between atoms: _344  and  _346
REMARK  129  A    between atoms: _346  and  _347
REMARK  130  A    between atoms: _346  and  _349
REMARK  131  A    between atoms: _349  and  _350
REMARK  132  A    between atoms: _354  and  _355
REMARK  133  A    between atoms: _360  and  _362
REMARK  134  A    between atoms: _362  and  _363
REMARK  135  A    between atoms: _362  and  _365
REMARK  136  A    between atoms: _365  and  _366
REMARK  137  A    between atoms: _376  and  _378
REMARK  138  A    between atoms: _378  and  _379
REMARK  139  A    between atoms: _378  and  _381
REMARK  140  A    between atoms: _381  and  _382
REMARK  141  A    between atoms: _387  and  _388
REMARK                            x       y       z     vdW  Elec       q    Type
REMARK                         _______ _______ _______ _____ _____    ______ ____
ROOT
ATOM      1  C   VAL A   1     -64.624  19.848 -24.680  0.00  0.00    +0.238 C 
ATOM      2  N   ASN A   2     -63.743  20.838 -24.580  0.00  0.00    -0.298 N 
ATOM      3  H   ASN A   2     -62.759  20.629 -24.316  0.00  0.00    +0.150 HD
ATOM      4  O   VAL A   1     -65.786  20.026 -25.041  0.00  0.00    -0.274 OA
ENDROOT
BRANCH   1   5
ATOM      5  CA  VAL A   1     -64.124  18.433 -24.355  0.00  0.00    +0.145 C 
BRANCH   5   6
ATOM      6  CB  VAL A   1     -64.180  18.137 -22.847  0.00  0.00    +0.025 C 
ATOM      7  CG2 VAL A   1     -65.532  18.503 -22.282  0.00  0.00    +0.002 C 
ATOM      8  CG1 VAL A   1     -63.894  16.642 -22.608  0.00  0.00    +0.002 C 
ENDBRANCH   5   6
BRANCH   5   9
ATOM      9  N   VAL A   1     -62.794  18.219 -24.887  0.00  0.00    -0.238 NA
ATOM     10  H   VAL A   1     -61.969  18.277 -24.257  0.00  0.00    +0.142 HD
ENDBRANCH   5   9
ENDBRANCH   1   5
BRANCH   2  11
ATOM     11  CA  ASN A   2     -64.149  22.221 -24.839  0.00  0.00    +0.146 C 
BRANCH  11  12
ATOM     12  C   ASN A   2     -64.684  22.385 -26.273  0.00  0.00    +0.227 C 
ATOM     13  O   ASN A   2     -65.681  23.059 -26.498  0.00  0.00    -0.286 OA
ENDBRANCH  11  12
BRANCH  11  14
ATOM     14  CB  ASN A   2     -62.991  23.210 -24.640  0.00  0.00    +0.112 C 
BRANCH  14  15
ATOM     15  CG  ASN A   2     -62.534  23.359 -23.182  0.00  0.00    +0.222 C 
ATOM     16  ND2 ASN A   2     -63.420  23.098 -22.222  0.00  0.00    -0.329 N 
ATOM     17 HD21 ASN A   2     -63.151  23.204 -21.223  0.00  0.00    +0.145 HD
ATOM     18 HD22 ASN A   2     -64.381  22.788 -22.471  0.00  0.00    +0.145 HD
ATOM     19  OD1 ASN A   2     -61.382  23.729 -22.936  0.00  0.00    -0.275 OA
ENDBRANCH  14  15
ENDBRANCH  11  14
ENDBRANCH   2  11
TORSDOF 7
REMARK  Name = ../refined-set-2016/3o7u/3o7u_pocket.pdb
REMARK  141 active torsions:
REMARK  status: ('A' for Active; 'I' for Inactive)
REMARK    1  A    between atoms: _1  and  _3
REMARK    2  A    between atoms: _14  and  _17
REMARK    3  A    between atoms: _17  and  _18
REMARK    4  A    between atoms: _23  and  _24
REMARK    5  A    between atoms: _32  and  _34
REMARK    6  A    between atoms: _34  and  _35
REMARK    7  A    between atoms: _34  and  _37
REMARK    8  A    between atoms: _37  and  _38
REMARK    9  A    between atoms: _41  and  _43
REMARK   10  A    between atoms: _43  and  _44
REMARK   11  A    between atoms: _43  and  _46
REMARK   12  A    between atoms: _46  and  _47
REMARK   13  A    between atoms: _50  and  _52
REMARK   14  A    between atoms: _52  and  _53
REMARK   15  A    between atoms: _52  and  _55
REMARK   16  A    between atoms: _55  and  _56
REMARK   17  A    between atoms: _59  and  _61
REMARK   18  A    between atoms: _61  and  _62
REMARK   19  A    between atoms: _61  and  _64
REMARK   20  A    between atoms: _64  and  _65
REMARK   21  A    between atoms: _68  and  _70
REMARK   22  A    between atoms: _70  and  _71
REMARK   23  A    between atoms: _70  and  _73
REMARK   24  A    between atoms: _73  and  _74
REMARK   25  A    between atoms: _80  and  _82
REMARK   26  A    between atoms: _82  and  _83
REMARK   27  A    between atoms: _85  and  _87
REMARK   28  A    between atoms: _87  and  _88
REMARK   29  A    between atoms: _87  and  _90
REMARK   30  A    between atoms: _90  and  _91
REMARK   31  A    between atoms: _94  and  _96
REMARK   32  A    between atoms: _96  and  _97
REMARK   33  A    between atoms: _96  and  _99
REMARK   34  A    between atoms: _99  and  _100
REMARK   35  A    between atoms: _110  and  _112
REMARK   36  A    between atoms: _112  and  _113
REMARK   37  A    between atoms: _112  and  _115
REMARK   38  A    between atoms: _115  and  _116
REMARK   39  A    between atoms: _121  and  _123
REMARK   40  A    between atoms: _123  and  _124
REMARK   41  A    between atoms: _123  and  _126
REMARK   42  A    between atoms: _126  and  _127
REMARK   43  A    between atoms: _130  and  _132
REMARK   44  A    between atoms: _132  and  _133
REMARK   45  A    between atoms: _132  and  _135
REMARK   46  A    between atoms: _135  and  _136
REMARK   47  A    between atoms: _143  and  _144
REMARK   48  A    between atoms: _149  and  _151
REMARK   49  A    between atoms: _151  and  _152
REMARK   50  A    between atoms: _151  and  _154
REMARK   51  A    between atoms: _154  and  _155
REMARK   52  A    between atoms: _155  and  _156
REMARK   53  A    between atoms: _161  and  _163
REMARK   54  A    between atoms: _163  and  _164
REMARK   55  A    between atoms: _163  and  _166
REMARK   56  A    between atoms: _166  and  _167
REMARK   57  A    between atoms: _167  and  _168
REMARK   58  A    between atoms: _171  and  _173
REMARK   59  A    between atoms: _173  and  _174
REMARK   60  A    between atoms: _177  and  _179
REMARK   61  A    between atoms: _179  and  _180
REMARK   62  A    between atoms: _179  and  _182
REMARK   63  A    between atoms: _182  and  _183
REMARK   64  A    between atoms: _186  and  _188
REMARK   65  A    between atoms: _188  and  _189
REMARK   66  A    between atoms: _188  and  _191
REMARK   67  A    between atoms: _191  and  _192
REMARK   68  A    between atoms: _197  and  _199
REMARK   69  A    between atoms: _199  and  _200
REMARK   70  A    between atoms: _199  and  _202
REMARK   71  A    between atoms: _202  and  _203
REMARK   72  A    between atoms: _209  and  _211
REMARK   73  A    between atoms: _211  and  _212
REMARK   74  A    between atoms: _211  and  _214
REMARK   75  A    between atoms: _214  and  _215
REMARK   76  A    between atoms: _219  and  ZN_390
REMARK   77  A    between atoms: _220  and  _222
REMARK   78  A    between atoms: _222  and  _223
REMARK   79  A    between atoms: _222  and  _225
REMARK   80  A    between atoms: _227  and  _229
REMARK   81  A    between atoms: _229  and  _230
REMARK   82  A    between atoms: _229  and  _232
REMARK   83  A    between atoms: _232  and  _233
REMARK   84  A    between atoms: _233  and  _234
REMARK   85  A    between atoms: _237  and  _239
REMARK   86  A    between atoms: _239  and  _240
REMARK   87  A    between atoms: _239  and  _242
REMARK   88  A    between atoms: _242  and  _243
REMARK   89  A    between atoms: _245  and  _247
REMARK   90  A    between atoms: _247  and  _248
REMARK   91  A    between atoms: _247  and  _250
REMARK   92  A    between atoms: _250  and  _251
REMARK   93  A    between atoms: _256  and  _258
REMARK   94  A    between atoms: _258  and  _259
REMARK   95  A    between atoms: _258  and  _261
REMARK   96  A    between atoms: _261  and  _262
REMARK   97  A    between atoms: _267  and  _269
REMARK   98  A    between atoms: _269  and  _270
REMARK   99  A    between atoms: _269  and  _272
REMARK  100  A    between atoms: _275  and  _277
REMARK  101  A    between atoms: _277  and  _278
REMARK  102  A    between atoms: _277  and  _280
REMARK  103  A    between atoms: _280  and  _281
REMARK  104  A    between atoms: _286  and  _288
REMARK  105  A    between atoms: _288  and  _289
REMARK  106  A    between atoms: _288  and  _291
REMARK  107  A    between atoms: _291  and  _292
REMARK  108  A    between atoms: _295  and  _297
REMARK  109  A    between atoms: _297  and  _298
REMARK  110  A    between atoms: _297  and  _300
REMARK  111  A    between atoms: _300  and  _301
REMARK  112  A    between atoms: _301  and  _302
REMARK  113  A    between atoms: _307  and  _309
REMARK  114  A    between atoms: _309  and  _310
REMARK  115  A    between atoms: _309  and  _312
REMARK  116  A    between atoms: _312  and  _313
REMARK  117  A    between atoms: _318  and  _320
REMARK  118  A    between atoms: _320  and  _321
REMARK  119  A    between atoms: _320  and  _323
REMARK  120  A    between atoms: _323  and  _324
REMARK  121  A    between atoms: _327  and  _329
REMARK  122  A    between atoms: _329  and  _330
REMARK  123  A    between atoms: _329  and  _332
REMARK  124  A    between atoms: _332  and  _333
REMARK  125  A    between atoms: _336  and  _338
REMARK  126  A    between atoms: _338  and  _339
REMARK  127  A    between atoms: _338  and  _341
REMARK  128  A    between atoms: _344  and  _346
REMARK  129  A    between atoms: _346  and  _347
REMARK  130  A    between atoms: _346  and  _349
REMARK  131  A    between atoms: _349  and  _350
REMARK  132  A    between atoms: _354  and  _355
REMARK  133  A    between atoms: _360  and  _362
REMARK  134  A    between atoms: _362  and  _363
REMARK  135  A    between atoms: _362  and  _365
REMARK  136  A    between atoms: _365  and  _366
REMARK  137  A    between atoms: _376  and  _378
REMARK  138  A    between atoms: _378  and  _379
REMARK  139  A    between atoms: _378  and  _381
REMARK  140  A    between atoms: _381  and  _382
REMARK  141  A    between atoms: _387  and  _388
REMARK                            x       y       z     vdW  Elec       q    Type
REMARK                         _______ _______ _______ _____ _____    ______ ____
ROOT
ATOM      1  C   LEU A   1     -69.572  22.805 -25.648  0.00  0.00    +0.238 C 
ATOM      2  O   LEU A   1     -70.638  23.336 -25.306  0.00  0.00    -0.274 OA
ATOM      3  N   GLN A   2     -68.548  23.496 -26.131  0.00  0.00    -0.298 N 
ATOM      4  H   GLN A   2     -67.669  23.011 -26.404  0.00  0.00    +0.150 HD
ENDROOT
BRANCH   1   5
ATOM      5  CA  LEU A   1     -69.357  21.319 -25.433  0.00  0.00    +0.145 C 
BRANCH   5   6
ATOM      6  N   LEU A   1     -68.278  20.757 -26.258  0.00  0.00    -0.238 NA
ATOM      7  H   LEU A   1     -67.309  20.730 -25.881  0.00  0.00    +0.142 HD
ENDBRANCH   5   6
BRANCH   5   8
ATOM      8  CB  LEU A   1     -69.061  21.146 -23.944  0.00  0.00    +0.026 C 
BRANCH   8   9
ATOM      9  CG  LEU A   1     -68.908  19.712 -23.434  0.00  0.00    +0.002 C 
ATOM     10  CD2 LEU A   1     -68.734  19.753 -21.923  0.00  0.00    +0.000 C 
ATOM     11  CD1 LEU A   1     -70.115  18.851 -23.835  0.00  0.00    +0.000 C 
ENDBRANCH   8   9
ENDBRANCH   5   8
ENDBRANCH   1   5
BRANCH   3  12
ATOM     12  CA  GLN A   2     -68.667  24.949 -26.276  0.00  0.00    +0.137 C 
BRANCH  12  13
ATOM     13  C   GLN A   2     -69.196  25.281 -27.663  0.00  0.00    +0.227 C 
ATOM     14  O   GLN A   2     -69.102  24.460 -28.584  0.00  0.00    -0.286 OA
ENDBRANCH  12  13
BRANCH  12  15
ATOM     15  CB  GLN A   2     -67.334  25.665 -26.027  0.00  0.00    +0.037 C 
BRANCH  15  16
ATOM     16  CG  GLN A   2     -66.734  25.443 -24.626  0.00  0.00    +0.087 C 
BRANCH  16  17
ATOM     17  CD  GLN A   2     -67.691  25.769 -23.479  0.00  0.00    +0.219 C 
ATOM     18  OE1 GLN A   2     -67.927  24.931 -22.603  0.00  0.00    -0.275 OA
ATOM     19  NE2 GLN A   2     -68.235  26.988 -23.472  0.00  0.00    -0.329 N 
ATOM     20 HE21 GLN A   2     -68.885  27.263 -22.708  0.00  0.00    +0.145 HD
ATOM     21 HE22 GLN A   2     -68.008  27.663 -24.230  0.00  0.00    +0.145 HD
ENDBRANCH  16  17
ENDBRANCH  15  16
ENDBRANCH  12  15
ENDBRANCH   3  12
TORSDOF 9
REMARK  Name = ../refined-set-2016/3o7u/3o7u_pocket.pdb
REMARK  141 active torsions:
REMARK  status: ('A' for Active; 'I' for Inactive)
REMARK    1  A    between atoms: _1  and  _3
REMARK    2  A    between atoms: _14  and  _17
REMARK    3  A    between atoms: _17  and  _18
REMARK    4  A    between atoms: _23  and  _24
REMARK    5  A    between atoms: _32  and  _34
REMARK    6  A    between atoms: _34  and  _35
REMARK    7  A    between atoms: _34  and  _37
REMARK    8  A    between atoms: _37  and  _38
REMARK    9  A    between atoms: _41  and  _43
REMARK   10  A    between atoms: _43  and  _44
REMARK   11  A    between atoms: _43  and  _46
REMARK   12  A    between atoms: _46  and  _47
REMARK   13  A    between atoms: _50  and  _52
REMARK   14  A    between atoms: _52  and  _53
REMARK   15  A    between atoms: _52  and  _55
REMARK   16  A    between atoms: _55  and  _56
REMARK   17  A    between atoms: _59  and  _61
REMARK   18  A    between atoms: _61  and  _62
REMARK   19  A    between atoms: _61  and  _64
REMARK   20  A    between atoms: _64  and  _65
REMARK   21  A    between atoms: _68  and  _70
REMARK   22  A    between atoms: _70  and  _71
REMARK   23  A    between atoms: _70  and  _73
REMARK   24  A    between atoms: _73  and  _74
REMARK   25  A    between atoms: _80  and  _82
REMARK   26  A    between atoms: _82  and  _83
REMARK   27  A    between atoms: _85  and  _87
REMARK   28  A    between atoms: _87  and  _88
REMARK   29  A    between atoms: _87  and  _90
REMARK   30  A    between atoms: _90  and  _91
REMARK   31  A    between atoms: _94  and  _96
REMARK   32  A    between atoms: _96  and  _97
REMARK   33  A    between atoms: _96  and  _99
REMARK   34  A    between atoms: _99  and  _100
REMARK   35  A    between atoms: _110  and  _112
REMARK   36  A    between atoms: _112  and  _113
REMARK   37  A    between atoms: _112  and  _115
REMARK   38  A    between atoms: _115  and  _116
REMARK   39  A    between atoms: _121  and  _123
REMARK   40  A    between atoms: _123  and  _124
REMARK   41  A    between atoms: _123  and  _126
REMARK   42  A    between atoms: _126  and  _127
REMARK   43  A    between atoms: _130  and  _132
REMARK   44  A    between atoms: _132  and  _133
REMARK   45  A    between atoms: _132  and  _135
REMARK   46  A    between atoms: _135  and  _136
REMARK   47  A    between atoms: _143  and  _144
REMARK   48  A    between atoms: _149  and  _151
REMARK   49  A    between atoms: _151  and  _152
REMARK   50  A    between atoms: _151  and  _154
REMARK   51  A    between atoms: _154  and  _155
REMARK   52  A    between atoms: _155  and  _156
REMARK   53  A    between atoms: _161  and  _163
REMARK   54  A    between atoms: _163  and  _164
REMARK   55  A    between atoms: _163  and  _166
REMARK   56  A    between atoms: _166  and  _167
REMARK   57  A    between atoms: _167  and  _168
REMARK   58  A    between atoms: _171  and  _173
REMARK   59  A    between atoms: _173  and  _174
REMARK   60  A    between atoms: _177  and  _179
REMARK   61  A    between atoms: _179  and  _180
REMARK   62  A    between atoms: _179  and  _182
REMARK   63  A    between atoms: _182  and  _183
REMARK   64  A    between atoms: _186  and  _188
REMARK   65  A    between atoms: _188  and  _189
REMARK   66  A    between atoms: _188  and  _191
REMARK   67  A    between atoms: _191  and  _192
REMARK   68  A    between atoms: _197  and  _199
REMARK   69  A    between atoms: _199  and  _200
REMARK   70  A    between atoms: _199  and  _202
REMARK   71  A    between atoms: _202  and  _203
REMARK   72  A    between atoms: _209  and  _211
REMARK   73  A    between atoms: _211  and  _212
REMARK   74  A    between atoms: _211  and  _214
REMARK   75  A    between atoms: _214  and  _215
REMARK   76  A    between atoms: _219  and  ZN_390
REMARK   77  A    between atoms: _220  and  _222
REMARK   78  A    between atoms: _222  and  _223
REMARK   79  A    between atoms: _222  and  _225
REMARK   80  A    between atoms: _227  and  _229
REMARK   81  A    between atoms: _229  and  _230
REMARK   82  A    between atoms: _229  and  _232
REMARK   83  A    between atoms: _232  and  _233
REMARK   84  A    between atoms: _233  and  _234
REMARK   85  A    between atoms: _237  and  _239
REMARK   86  A    between atoms: _239  and  _240
REMARK   87  A    between atoms: _239  and  _242
REMARK   88  A    between atoms: _242  and  _243
REMARK   89  A    between atoms: _245  and  _247
REMARK   90  A    between atoms: _247  and  _248
REMARK   91  A    between atoms: _247  and  _250
REMARK   92  A    between atoms: _250  and  _251
REMARK   93  A    between atoms: _256  and  _258
REMARK   94  A    between atoms: _258  and  _259
REMARK   95  A    between atoms: _258  and  _261
REMARK   96  A    between atoms: _261  and  _262
REMARK   97  A    between atoms: _267  and  _269
REMARK   98  A    between atoms: _269  and  _270
REMARK   99  A    between atoms: _269  and  _272
REMARK  100  A    between atoms: _275  and  _277
REMARK  101  A    between atoms: _277  and  _278
REMARK  102  A    between atoms: _277  and  _280
REMARK  103  A    between atoms: _280  and  _281
REMARK  104  A    between atoms: _286  and  _288
REMARK  105  A    between atoms: _288  and  _289
REMARK  106  A    between atoms: _288  and  _291
REMARK  107  A    between atoms: _291  and  _292
REMARK  108  A    between atoms: _295  and  _297
REMARK  109  A    between atoms: _297  and  _298
REMARK  110  A    between atoms: _297  and  _300
REMARK  111  A    between atoms: _300  and  _301
REMARK  112  A    between atoms: _301  and  _302
REMARK  113  A    between atoms: _307  and  _309
REMARK  114  A    between atoms: _309  and  _310
REMARK  115  A    between atoms: _309  and  _312
REMARK  116  A    between atoms: _312  and  _313
REMARK  117  A    between atoms: _318  and  _320
REMARK  118  A    between atoms: _320  and  _321
REMARK  119  A    between atoms: _320  and  _323
REMARK  120  A    between atoms: _323  and  _324
REMARK  121  A    between atoms: _327  and  _329
REMARK  122  A    between atoms: _329  and  _330
REMARK  123  A    between atoms: _329  and  _332
REMARK  124  A    between atoms: _332  and  _333
REMARK  125  A    between atoms: _336  and  _338
REMARK  126  A    between atoms: _338  and  _339
REMARK  127  A    between atoms: _338  and  _341
REMARK  128  A    between atoms: _344  and  _346
REMARK  129  A    between atoms: _346  and  _347
REMARK  130  A    between atoms: _346  and  _349
REMARK  131  A    between atoms: _349  and  _350
REMARK  132  A    between atoms: _354  and  _355
REMARK  133  A    between atoms: _360  and  _362
REMARK  134  A    between atoms: _362  and  _363
REMARK  135  A    between atoms: _362  and  _365
REMARK  136  A    between atoms: _365  and  _366
REMARK  137  A    between atoms: _376  and  _378
REMARK  138  A    between atoms: _378  and  _379
REMARK  139  A    between atoms: _378  and  _381
REMARK  140  A    between atoms: _381  and  _382
REMARK  141  A    between atoms: _387  and  _388
REMARK                            x       y       z     vdW  Elec       q    Type
REMARK                         _______ _______ _______ _____ _____    ______ ____
ROOT
ATOM      1  C   ASP A   2     -62.181  14.744 -18.616  0.00  0.00    +0.241 C 
ATOM      2  O   ASP A   2     -62.532  14.345 -17.503  0.00  0.00    -0.273 OA
ATOM      3  N   ASP A   3     -62.568  14.157 -19.739  0.00  0.00    -0.297 N 
ATOM      4  H   ASP A   3     -62.151  14.455 -20.644  0.00  0.00    +0.150 HD
ENDROOT
BRANCH   1   5
ATOM      5  CA  ASP A   2     -61.269  15.968 -18.756  0.00  0.00    +0.160 C 
BRANCH   5   7
ATOM      6  C   HIS A   1     -59.783  15.509 -20.685  0.00  0.00    +0.239 C 
ATOM      7  N   ASP A   2     -59.971  15.678 -19.381  0.00  0.00    -0.297 N 
ATOM      8  H   ASP A   2     -59.141  15.600 -18.759  0.00  0.00    +0.150 HD
ATOM      9  O   HIS A   1     -60.694  15.491 -21.514  0.00  0.00    -0.274 OA
BRANCH   6  10
ATOM     10  CA  HIS A   1     -58.330  15.299 -21.118  0.00  0.00    +0.151 C 
BRANCH  10  11
ATOM     11  N   HIS A   1     -57.446  16.090 -20.266  0.00  0.00    -0.238 NA
ATOM     12  H   HIS A   1     -57.033  15.650 -19.419  0.00  0.00    +0.142 HD
ENDBRANCH  10  11
BRANCH  10  13
ATOM     13  CB  HIS A   1     -57.961  13.809 -21.024  0.00  0.00    +0.074 C 
BRANCH  13  14
ATOM     14  CG  HIS A   1     -58.489  12.970 -22.149  0.00  0.00    +0.082 A 
ATOM     15  ND1 HIS A   1     -59.837  12.805 -22.388  0.00  0.00    -0.227 NA
ATOM     16  CE1 HIS A   1     -60.004  12.004 -23.427  0.00  0.00    +0.199 A 
ATOM     17  NE2 HIS A   1     -58.814  11.637 -23.866  0.00  0.00    -0.221 NA
ATOM     18  CD2 HIS A   1     -57.849  12.219 -23.079  0.00  0.00    +0.115 A 
ENDBRANCH  13  14
ENDBRANCH  10  13
ENDBRANCH   6  10
ENDBRANCH   5   7
BRANCH   5  19
ATOM     19  CB  ASP A   2     -61.991  17.106 -19.498  0.00  0.00    +0.143 C 
BRANCH  19  20
ATOM     20  CG  ASP A   2     -63.048  17.799 -18.644  0.00  0.00    +0.367 C 
ATOM     21  OD2 ASP A   2     -63.235  17.413 -17.469  0.00  0.00    -0.246 OA
ATOM     22  OD1 ASP A   2     -63.691  18.748 -19.156  0.00  0.00    -0.246 OA
ENDBRANCH  19  20
ENDBRANCH   5  19
ENDBRANCH   1   5
BRANCH   3  23
ATOM     23  CA  ASP A   3     -63.570  13.100 -19.722  0.00  0.00    +0.160 C 
BRANCH  23  24
ATOM     24  C   ASP A   3     -63.178  11.974 -20.657  0.00  0.00    +0.241 C 
ATOM     25  N   VAL A   4     -63.421  10.741 -20.222  0.00  0.00    -0.298 N 
ATOM     26  H   VAL A   4     -63.773  10.603 -19.253  0.00  0.00    +0.150 HD
ATOM     27  O   ASP A   3     -62.660  12.215 -21.747  0.00  0.00    -0.273 OA
BRANCH  25  28
ATOM     28  CA  VAL A   4     -63.204   9.575 -21.078  0.00  0.00    +0.137 C 
BRANCH  28  29
ATOM     29  CB  VAL A   4     -61.981   8.740 -20.619  0.00  0.00    +0.026 C 
ATOM     30  CG2 VAL A   4     -60.700   9.566 -20.717  0.00  0.00    +0.002 C 
ATOM     31  CG1 VAL A   4     -61.854   7.463 -21.461  0.00  0.00    +0.002 C 
ENDBRANCH  28  29
BRANCH  28  32
ATOM     32  C   VAL A   4     -64.464   8.713 -21.099  0.00  0.00    +0.227 C 
ATOM     33  O   VAL A   4     -64.844   8.126 -20.082  0.00  0.00    -0.286 OA
ENDBRANCH  28  32
ENDBRANCH  25  28
ENDBRANCH  23  24
BRANCH  23  34
ATOM     34  CB  ASP A   3     -64.939  13.659 -20.134  0.00  0.00    +0.143 C 
BRANCH  34  35
ATOM     35  CG  ASP A   3     -65.446  14.715 -19.166  0.00  0.00    +0.367 C 
ATOM     36  OD2 ASP A   3     -66.054  14.334 -18.147  0.00  0.00    -0.246 OA
ATOM     37  OD1 ASP A   3     -65.217  15.922 -19.399  0.00  0.00    -0.246 OA
ENDBRANCH  34  35
ENDBRANCH  23  34
ENDBRANCH   3  23
TORSDOF 15
REMARK  Name = ../refined-set-2016/3o7u/3o7u_pocket.pdb
REMARK  141 active torsions:
REMARK  status: ('A' for Active; 'I' for Inactive)
REMARK    1  A    between atoms: _1  and  _3
REMARK    2  A    between atoms: _14  and  _17
REMARK    3  A    between atoms: _17  and  _18
REMARK    4  A    between atoms: _23  and  _24
REMARK    5  A    between atoms: _32  and  _34
REMARK    6  A    between atoms: _34  and  _35
REMARK    7  A    between atoms: _34  and  _37
REMARK    8  A    between atoms: _37  and  _38
REMARK    9  A    between atoms: _41  and  _43
REMARK   10  A    between atoms: _43  and  _44
REMARK   11  A    between atoms: _43  and  _46
REMARK   12  A    between atoms: _46  and  _47
REMARK   13  A    between atoms: _50  and  _52
REMARK   14  A    between atoms: _52  and  _53
REMARK   15  A    between atoms: _52  and  _55
REMARK   16  A    between atoms: _55  and  _56
REMARK   17  A    between atoms: _59  and  _61
REMARK   18  A    between atoms: _61  and  _62
REMARK   19  A    between atoms: _61  and  _64
REMARK   20  A    between atoms: _64  and  _65
REMARK   21  A    between atoms: _68  and  _70
REMARK   22  A    between atoms: _70  and  _71
REMARK   23  A    between atoms: _70  and  _73
REMARK   24  A    between atoms: _73  and  _74
REMARK   25  A    between atoms: _80  and  _82
REMARK   26  A    between atoms: _82  and  _83
REMARK   27  A    between atoms: _85  and  _87
REMARK   28  A    between atoms: _87  and  _88
REMARK   29  A    between atoms: _87  and  _90
REMARK   30  A    between atoms: _90  and  _91
REMARK   31  A    between atoms: _94  and  _96
REMARK   32  A    between atoms: _96  and  _97
REMARK   33  A    between atoms: _96  and  _99
REMARK   34  A    between atoms: _99  and  _100
REMARK   35  A    between atoms: _110  and  _112
REMARK   36  A    between atoms: _112  and  _113
REMARK   37  A    between atoms: _112  and  _115
REMARK   38  A    between atoms: _115  and  _116
REMARK   39  A    between atoms: _121  and  _123
REMARK   40  A    between atoms: _123  and  _124
REMARK   41  A    between atoms: _123  and  _126
REMARK   42  A    between atoms: _126  and  _127
REMARK   43  A    between atoms: _130  and  _132
REMARK   44  A    between atoms: _132  and  _133
REMARK   45  A    between atoms: _132  and  _135
REMARK   46  A    between atoms: _135  and  _136
REMARK   47  A    between atoms: _143  and  _144
REMARK   48  A    between atoms: _149  and  _151
REMARK   49  A    between atoms: _151  and  _152
REMARK   50  A    between atoms: _151  and  _154
REMARK   51  A    between atoms: _154  and  _155
REMARK   52  A    between atoms: _155  and  _156
REMARK   53  A    between atoms: _161  and  _163
REMARK   54  A    between atoms: _163  and  _164
REMARK   55  A    between atoms: _163  and  _166
REMARK   56  A    between atoms: _166  and  _167
REMARK   57  A    between atoms: _167  and  _168
REMARK   58  A    between atoms: _171  and  _173
REMARK   59  A    between atoms: _173  and  _174
REMARK   60  A    between atoms: _177  and  _179
REMARK   61  A    between atoms: _179  and  _180
REMARK   62  A    between atoms: _179  and  _182
REMARK   63  A    between atoms: _182  and  _183
REMARK   64  A    between atoms: _186  and  _188
REMARK   65  A    between atoms: _188  and  _189
REMARK   66  A    between atoms: _188  and  _191
REMARK   67  A    between atoms: _191  and  _192
REMARK   68  A    between atoms: _197  and  _199
REMARK   69  A    between atoms: _199  and  _200
REMARK   70  A    between atoms: _199  and  _202
REMARK   71  A    between atoms: _202  and  _203
REMARK   72  A    between atoms: _209  and  _211
REMARK   73  A    between atoms: _211  and  _212
REMARK   74  A    between atoms: _211  and  _214
REMARK   75  A    between atoms: _214  and  _215
REMARK   76  A    between atoms: _219  and  ZN_390
REMARK   77  A    between atoms: _220  and  _222
REMARK   78  A    between atoms: _222  and  _223
REMARK   79  A    between atoms: _222  and  _225
REMARK   80  A    between atoms: _227  and  _229
REMARK   81  A    between atoms: _229  and  _230
REMARK   82  A    between atoms: _229  and  _232
REMARK   83  A    between atoms: _232  and  _233
REMARK   84  A    between atoms: _233  and  _234
REMARK   85  A    between atoms: _237  and  _239
REMARK   86  A    between atoms: _239  and  _240
REMARK   87  A    between atoms: _239  and  _242
REMARK   88  A    between atoms: _242  and  _243
REMARK   89  A    between atoms: _245  and  _247
REMARK   90  A    between atoms: _247  and  _248
REMARK   91  A    between atoms: _247  and  _250
REMARK   92  A    between atoms: _250  and  _251
REMARK   93  A    between atoms: _256  and  _258
REMARK   94  A    between atoms: _258  and  _259
REMARK   95  A    between atoms: _258  and  _261
REMARK   96  A    between atoms: _261  and  _262
REMARK   97  A    between atoms: _267  and  _269
REMARK   98  A    between atoms: _269  and  _270
REMARK   99  A    between atoms: _269  and  _272
REMARK  100  A    between atoms: _275  and  _277
REMARK  101  A    between atoms: _277  and  _278
REMARK  102  A    between atoms: _277  and  _280
REMARK  103  A    between atoms: _280  and  _281
REMARK  104  A    between atoms: _286  and  _288
REMARK  105  A    between atoms: _288  and  _289
REMARK  106  A    between atoms: _288  and  _291
REMARK  107  A    between atoms: _291  and  _292
REMARK  108  A    between atoms: _295  and  _297
REMARK  109  A    between atoms: _297  and  _298
REMARK  110  A    between atoms: _297  and  _300
REMARK  111  A    between atoms: _300  and  _301
REMARK  112  A    between atoms: _301  and  _302
REMARK  113  A    between atoms: _307  and  _309
REMARK  114  A    between atoms: _309  and  _310
REMARK  115  A    between atoms: _309  and  _312
REMARK  116  A    between atoms: _312  and  _313
REMARK  117  A    between atoms: _318  and  _320
REMARK  118  A    between atoms: _320  and  _321
REMARK  119  A    between atoms: _320  and  _323
REMARK  120  A    between atoms: _323  and  _324
REMARK  121  A    between atoms: _327  and  _329
REMARK  122  A    between atoms: _329  and  _330
REMARK  123  A    between atoms: _329  and  _332
REMARK  124  A    between atoms: _332  and  _333
REMARK  125  A    between atoms: _336  and  _338
REMARK  126  A    between atoms: _338  and  _339
REMARK  127  A    between atoms: _338  and  _341
REMARK  128  A    between atoms: _344  and  _346
REMARK  129  A    between atoms: _346  and  _347
REMARK  130  A    between atoms: _346  and  _349
REMARK  131  A    between atoms: _349  and  _350
REMARK  132  A    between atoms: _354  and  _355
REMARK  133  A    between atoms: _360  and  _362
REMARK  134  A    between atoms: _362  and  _363
REMARK  135  A    between atoms: _362  and  _365
REMARK  136  A    between atoms: _365  and  _366
REMARK  137  A    between atoms: _376  and  _378
REMARK  138  A    between atoms: _378  and  _379
REMARK  139  A    between atoms: _378  and  _381
REMARK  140  A    between atoms: _381  and  _382
REMARK  141  A    between atoms: _387  and  _388
REMARK                            x       y       z     vdW  Elec       q    Type
REMARK                         _______ _______ _______ _____ _____    ______ ____
ROOT
ATOM      1  CA  TRP A   3     -69.638  14.925 -21.507  0.00  0.00    +0.000 C 
ENDROOT
BRANCH   1   3
ATOM      2  C   PRO A   2     -71.384  13.299 -21.056  0.00  0.00    +0.000 C 
ATOM      3  N   TRP A   3     -70.139  13.709 -20.855  0.00  0.00    +0.000 N 
ATOM      4  H   TRP A   3     -69.512  13.164 -20.230  0.00  0.00    +0.000 HD
ATOM      5  O   PRO A   2     -72.154  13.863 -21.836  0.00  0.00    +0.000 OA
BRANCH   2  11
ATOM      6  C   ASP A   1     -69.909  10.663 -20.695  0.00  0.00    +0.000 C 
ATOM      7  N   PRO A   2     -70.762  11.202 -19.792  0.00  0.00    +0.000 N 
ATOM      8  CD  PRO A   2     -70.874  10.966 -18.340  0.00  0.00    +0.000 C 
ATOM      9  CG  PRO A   2     -72.294  11.386 -18.034  0.00  0.00    +0.000 C 
ATOM     10  CB  PRO A   2     -72.581  12.482 -19.003  0.00  0.00    +0.000 C 
ATOM     11  CA  PRO A   2     -71.852  12.058 -20.290  0.00  0.00    +0.000 C 
ATOM     12  O   ASP A   1     -69.986  10.914 -21.897  0.00  0.00    +0.000 OA
BRANCH   6  13
ATOM     13  CA  ASP A   1     -68.833   9.676 -20.201  0.00  0.00    +0.000 C 
BRANCH  13  14
ATOM     14  N   ASP A   1     -67.889   9.352 -21.272  0.00  0.00    +0.000 NA
ATOM     15  H   ASP A   1     -67.579  10.103 -21.922  0.00  0.00    +0.000 HD
ENDBRANCH  13  14
BRANCH  13  16
ATOM     16  CB  ASP A   1     -68.072  10.131 -18.944  0.00  0.00    +0.000 C 
BRANCH  16  17
ATOM     17  CG  ASP A   1     -67.559  11.553 -19.032  0.00  0.00    +0.000 C 
ATOM     18  OD2 ASP A   1     -66.836  11.969 -18.090  0.00  0.00    +0.000 OA
ATOM     19  OD1 ASP A   1     -67.886  12.256 -20.016  0.00  0.00    +0.000 OA
ENDBRANCH  16  17
ENDBRANCH  13  16
ENDBRANCH   6  13
ENDBRANCH   2  11
ENDBRANCH   1   3
BRANCH   1  20
ATOM     20  C   TRP A   3     -68.736  14.667 -22.702  0.00  0.00    +0.000 C 
ATOM     21  N   TYR A   4     -68.372  13.412 -22.940  0.00  0.00    +0.000 N 
ATOM     22  H   TYR A   4     -68.741  12.641 -22.348  0.00  0.00    +0.000 HD
ATOM     23  O   TRP A   3     -68.362  15.609 -23.402  0.00  0.00    +0.000 OA
BRANCH  21  24
ATOM     24  CA  TYR A   4     -67.451  13.118 -24.037  0.00  0.00    +0.000 C 
BRANCH  24  25
ATOM     25  C   TYR A   4     -67.531  11.650 -24.414  0.00  0.00    +0.000 C 
ATOM     26  O   TYR A   4     -67.163  10.773 -23.630  0.00  0.00    +0.000 OA
ENDBRANCH  24  25
BRANCH  24  27
ATOM     27  CB  TYR A   4     -66.013  13.495 -23.659  0.00  0.00    +0.000 C 
BRANCH  27  28
ATOM     28  CG  TYR A   4     -65.043  13.467 -24.832  0.00  0.00    +0.000 A 
ATOM     29  CD2 TYR A   4     -64.038  12.505 -24.910  0.00  0.00    +0.000 A 
ATOM     30  CE2 TYR A   4     -63.141  12.479 -25.972  0.00  0.00    +0.000 A 
ATOM     31  CZ  TYR A   4     -63.255  13.416 -26.991  0.00  0.00    +0.000 A 
ATOM     32  CE1 TYR A   4     -64.254  14.374 -26.945  0.00  0.00    +0.000 A 
ATOM     33  CD1 TYR A   4     -65.142  14.395 -25.866  0.00  0.00    +0.000 A 
BRANCH  31  34
ATOM     34  OH  TYR A   4     -62.371  13.383 -28.045  0.00  0.00    +0.000 OA
ATOM     35  HH  TYR A   4     -61.730  12.640 -27.914  0.00  0.00    +0.000 HD
ENDBRANCH  31  34
ENDBRANCH  27  28
ENDBRANCH  24  27
ENDBRANCH  21  24
ENDBRANCH   1  20
BRANCH   1  36
ATOM     36  CB  TRP A   3     -68.894  15.799 -20.502  0.00  0.00    +0.000 C 
BRANCH  36  37
ATOM     37  CG  TRP A   3     -69.772  16.271 -19.385  0.00  0.00    +0.000 A 
ATOM     38  CD2 TRP A   3     -69.959  15.634 -18.115  0.00  0.00    +0.000 A 
ATOM     39  CE2 TRP A   3     -70.880  16.418 -17.385  0.00  0.00    +0.000 A 
ATOM     40  CZ2 TRP A   3     -71.281  16.089 -16.089  0.00  0.00    +0.000 A 
ATOM     41  CH2 TRP A   3     -70.757  14.949 -15.542  0.00  0.00    +0.000 A 
ATOM     42  CZ3 TRP A   3     -69.849  14.143 -16.246  0.00  0.00    +0.000 A 
ATOM     43  NE1 TRP A   3     -71.229  17.485 -18.170  0.00  0.00    +0.000 N 
ATOM     44  HE1 TRP A   3     -71.890  18.242 -17.903  0.00  0.00    +0.000 HD
ATOM     45  CE3 TRP A   3     -69.442  14.474 -17.527  0.00  0.00    +0.000 A 
ATOM     46  CD1 TRP A   3     -70.559  17.391 -19.375  0.00  0.00    +0.000 A 
ENDBRANCH  36  37
ENDBRANCH   1  36
TORSDOF 14
REMARK  Name = ../refined-set-2016/3o7u/3o7u_pocket.pdb
REMARK  141 active torsions:
REMARK  status: ('A' for Active; 'I' for Inactive)
REMARK    1  A    between atoms: _1  and  _3
REMARK    2  A    between atoms: _14  and  _17
REMARK    3  A    between atoms: _17  and  _18
REMARK    4  A    between atoms: _23  and  _24
REMARK    5  A    between atoms: _32  and  _34
REMARK    6  A    between atoms: _34  and  _35
REMARK    7  A    between atoms: _34  and  _37
REMARK    8  A    between atoms: _37  and  _38
REMARK    9  A    between atoms: _41  and  _43
REMARK   10  A    between atoms: _43  and  _44
REMARK   11  A    between atoms: _43  and  _46
REMARK   12  A    between atoms: _46  and  _47
REMARK   13  A    between atoms: _50  and  _52
REMARK   14  A    between atoms: _52  and  _53
REMARK   15  A    between atoms: _52  and  _55
REMARK   16  A    between atoms: _55  and  _56
REMARK   17  A    between atoms: _59  and  _61
REMARK   18  A    between atoms: _61  and  _62
REMARK   19  A    between atoms: _61  and  _64
REMARK   20  A    between atoms: _64  and  _65
REMARK   21  A    between atoms: _68  and  _70
REMARK   22  A    between atoms: _70  and  _71
REMARK   23  A    between atoms: _70  and  _73
REMARK   24  A    between atoms: _73  and  _74
REMARK   25  A    between atoms: _80  and  _82
REMARK   26  A    between atoms: _82  and  _83
REMARK   27  A    between atoms: _85  and  _87
REMARK   28  A    between atoms: _87  and  _88
REMARK   29  A    between atoms: _87  and  _90
REMARK   30  A    between atoms: _90  and  _91
REMARK   31  A    between atoms: _94  and  _96
REMARK   32  A    between atoms: _96  and  _97
REMARK   33  A    between atoms: _96  and  _99
REMARK   34  A    between atoms: _99  and  _100
REMARK   35  A    between atoms: _110  and  _112
REMARK   36  A    between atoms: _112  and  _113
REMARK   37  A    between atoms: _112  and  _115
REMARK   38  A    between atoms: _115  and  _116
REMARK   39  A    between atoms: _121  and  _123
REMARK   40  A    between atoms: _123  and  _124
REMARK   41  A    between atoms: _123  and  _126
REMARK   42  A    between atoms: _126  and  _127
REMARK   43  A    between atoms: _130  and  _132
REMARK   44  A    between atoms: _132  and  _133
REMARK   45  A    between atoms: _132  and  _135
REMARK   46  A    between atoms: _135  and  _136
REMARK   47  A    between atoms: _143  and  _144
REMARK   48  A    between atoms: _149  and  _151
REMARK   49  A    between atoms: _151  and  _152
REMARK   50  A    between atoms: _151  and  _154
REMARK   51  A    between atoms: _154  and  _155
REMARK   52  A    between atoms: _155  and  _156
REMARK   53  A    between atoms: _161  and  _163
REMARK   54  A    between atoms: _163  and  _164
REMARK   55  A    between atoms: _163  and  _166
REMARK   56  A    between atoms: _166  and  _167
REMARK   57  A    between atoms: _167  and  _168
REMARK   58  A    between atoms: _171  and  _173
REMARK   59  A    between atoms: _173  and  _174
REMARK   60  A    between atoms: _177  and  _179
REMARK   61  A    between atoms: _179  and  _180
REMARK   62  A    between atoms: _179  and  _182
REMARK   63  A    between atoms: _182  and  _183
REMARK   64  A    between atoms: _186  and  _188
REMARK   65  A    between atoms: _188  and  _189
REMARK   66  A    between atoms: _188  and  _191
REMARK   67  A    between atoms: _191  and  _192
REMARK   68  A    between atoms: _197  and  _199
REMARK   69  A    between atoms: _199  and  _200
REMARK   70  A    between atoms: _199  and  _202
REMARK   71  A    between atoms: _202  and  _203
REMARK   72  A    between atoms: _209  and  _211
REMARK   73  A    between atoms: _211  and  _212
REMARK   74  A    between atoms: _211  and  _214
REMARK   75  A    between atoms: _214  and  _215
REMARK   76  A    between atoms: _219  and  ZN_390
REMARK   77  A    between atoms: _220  and  _222
REMARK   78  A    between atoms: _222  and  _223
REMARK   79  A    between atoms: _222  and  _225
REMARK   80  A    between atoms: _227  and  _229
REMARK   81  A    between atoms: _229  and  _230
REMARK   82  A    between atoms: _229  and  _232
REMARK   83  A    between atoms: _232  and  _233
REMARK   84  A    between atoms: _233  and  _234
REMARK   85  A    between atoms: _237  and  _239
REMARK   86  A    between atoms: _239  and  _240
REMARK   87  A    between atoms: _239  and  _242
REMARK   88  A    between atoms: _242  and  _243
REMARK   89  A    between atoms: _245  and  _247
REMARK   90  A    between atoms: _247  and  _248
REMARK   91  A    between atoms: _247  and  _250
REMARK   92  A    between atoms: _250  and  _251
REMARK   93  A    between atoms: _256  and  _258
REMARK   94  A    between atoms: _258  and  _259
REMARK   95  A    between atoms: _258  and  _261
REMARK   96  A    between atoms: _261  and  _262
REMARK   97  A    between atoms: _267  and  _269
REMARK   98  A    between atoms: _269  and  _270
REMARK   99  A    between atoms: _269  and  _272
REMARK  100  A    between atoms: _275  and  _277
REMARK  101  A    between atoms: _277  and  _278
REMARK  102  A    between atoms: _277  and  _280
REMARK  103  A    between atoms: _280  and  _281
REMARK  104  A    between atoms: _286  and  _288
REMARK  105  A    between atoms: _288  and  _289
REMARK  106  A    between atoms: _288  and  _291
REMARK  107  A    between atoms: _291  and  _292
REMARK  108  A    between atoms: _295  and  _297
REMARK  109  A    between atoms: _297  and  _298
REMARK  110  A    between atoms: _297  and  _300
REMARK  111  A    between atoms: _300  and  _301
REMARK  112  A    between atoms: _301  and  _302
REMARK  113  A    between atoms: _307  and  _309
REMARK  114  A    between atoms: _309  and  _310
REMARK  115  A    between atoms: _309  and  _312
REMARK  116  A    between atoms: _312  and  _313
REMARK  117  A    between atoms: _318  and  _320
REMARK  118  A    between atoms: _320  and  _321
REMARK  119  A    between atoms: _320  and  _323
REMARK  120  A    between atoms: _323  and  _324
REMARK  121  A    between atoms: _327  and  _329
REMARK  122  A    between atoms: _329  and  _330
REMARK  123  A    between atoms: _329  and  _332
REMARK  124  A    between atoms: _332  and  _333
REMARK  125  A    between atoms: _336  and  _338
REMARK  126  A    between atoms: _338  and  _339
REMARK  127  A    between atoms: _338  and  _341
REMARK  128  A    between atoms: _344  and  _346
REMARK  129  A    between atoms: _346  and  _347
REMARK  130  A    between atoms: _346  and  _349
REMARK  131  A    between atoms: _349  and  _350
REMARK  132  A    between atoms: _354  and  _355
REMARK  133  A    between atoms: _360  and  _362
REMARK  134  A    between atoms: _362  and  _363
REMARK  135  A    between atoms: _362  and  _365
REMARK  136  A    between atoms: _365  and  _366
REMARK  137  A    between atoms: _376  and  _378
REMARK  138  A    between atoms: _378  and  _379
REMARK  139  A    between atoms: _378  and  _381
REMARK  140  A    between atoms: _381  and  _382
REMARK  141  A    between atoms: _387  and  _388
REMARK                            x       y       z     vdW  Elec       q    Type
REMARK                         _______ _______ _______ _____ _____    ______ ____
ROOT
ATOM      1  O   HOH     1     -66.329  22.633 -22.023  0.00  0.00    +0.000 OA
ENDROOT
TORSDOF 0
REMARK  Name = ../refined-set-2016/3o7u/3o7u_pocket.pdb
REMARK  141 active torsions:
REMARK  status: ('A' for Active; 'I' for Inactive)
REMARK    1  A    between atoms: _1  and  _3
REMARK    2  A    between atoms: _14  and  _17
REMARK    3  A    between atoms: _17  and  _18
REMARK    4  A    between atoms: _23  and  _24
REMARK    5  A    between atoms: _32  and  _34
REMARK    6  A    between atoms: _34  and  _35
REMARK    7  A    between atoms: _34  and  _37
REMARK    8  A    between atoms: _37  and  _38
REMARK    9  A    between atoms: _41  and  _43
REMARK   10  A    between atoms: _43  and  _44
REMARK   11  A    between atoms: _43  and  _46
REMARK   12  A    between atoms: _46  and  _47
REMARK   13  A    between atoms: _50  and  _52
REMARK   14  A    between atoms: _52  and  _53
REMARK   15  A    between atoms: _52  and  _55
REMARK   16  A    between atoms: _55  and  _56
REMARK   17  A    between atoms: _59  and  _61
REMARK   18  A    between atoms: _61  and  _62
REMARK   19  A    between atoms: _61  and  _64
REMARK   20  A    between atoms: _64  and  _65
REMARK   21  A    between atoms: _68  and  _70
REMARK   22  A    between atoms: _70  and  _71
REMARK   23  A    between atoms: _70  and  _73
REMARK   24  A    between atoms: _73  and  _74
REMARK   25  A    between atoms: _80  and  _82
REMARK   26  A    between atoms: _82  and  _83
REMARK   27  A    between atoms: _85  and  _87
REMARK   28  A    between atoms: _87  and  _88
REMARK   29  A    between atoms: _87  and  _90
REMARK   30  A    between atoms: _90  and  _91
REMARK   31  A    between atoms: _94  and  _96
REMARK   32  A    between atoms: _96  and  _97
REMARK   33  A    between atoms: _96  and  _99
REMARK   34  A    between atoms: _99  and  _100
REMARK   35  A    between atoms: _110  and  _112
REMARK   36  A    between atoms: _112  and  _113
REMARK   37  A    between atoms: _112  and  _115
REMARK   38  A    between atoms: _115  and  _116
REMARK   39  A    between atoms: _121  and  _123
REMARK   40  A    between atoms: _123  and  _124
REMARK   41  A    between atoms: _123  and  _126
REMARK   42  A    between atoms: _126  and  _127
REMARK   43  A    between atoms: _130  and  _132
REMARK   44  A    between atoms: _132  and  _133
REMARK   45  A    between atoms: _132  and  _135
REMARK   46  A    between atoms: _135  and  _136
REMARK   47  A    between atoms: _143  and  _144
REMARK   48  A    between atoms: _149  and  _151
REMARK   49  A    between atoms: _151  and  _152
REMARK   50  A    between atoms: _151  and  _154
REMARK   51  A    between atoms: _154  and  _155
REMARK   52  A    between atoms: _155  and  _156
REMARK   53  A    between atoms: _161  and  _163
REMARK   54  A    between atoms: _163  and  _164
REMARK   55  A    between atoms: _163  and  _166
REMARK   56  A    between atoms: _166  and  _167
REMARK   57  A    between atoms: _167  and  _168
REMARK   58  A    between atoms: _171  and  _173
REMARK   59  A    between atoms: _173  and  _174
REMARK   60  A    between atoms: _177  and  _179
REMARK   61  A    between atoms: _179  and  _180
REMARK   62  A    between atoms: _179  and  _182
REMARK   63  A    between atoms: _182  and  _183
REMARK   64  A    between atoms: _186  and  _188
REMARK   65  A    between atoms: _188  and  _189
REMARK   66  A    between atoms: _188  and  _191
REMARK   67  A    between atoms: _191  and  _192
REMARK   68  A    between atoms: _197  and  _199
REMARK   69  A    between atoms: _199  and  _200
REMARK   70  A    between atoms: _199  and  _202
REMARK   71  A    between atoms: _202  and  _203
REMARK   72  A    between atoms: _209  and  _211
REMARK   73  A    between atoms: _211  and  _212
REMARK   74  A    between atoms: _211  and  _214
REMARK   75  A    between atoms: _214  and  _215
REMARK   76  A    between atoms: _219  and  ZN_390
REMARK   77  A    between atoms: _220  and  _222
REMARK   78  A    between atoms: _222  and  _223
REMARK   79  A    between atoms: _222  and  _225
REMARK   80  A    between atoms: _227  and  _229
REMARK   81  A    between atoms: _229  and  _230
REMARK   82  A    between atoms: _229  and  _232
REMARK   83  A    between atoms: _232  and  _233
REMARK   84  A    between atoms: _233  and  _234
REMARK   85  A    between atoms: _237  and  _239
REMARK   86  A    between atoms: _239  and  _240
REMARK   87  A    between atoms: _239  and  _242
REMARK   88  A    between atoms: _242  and  _243
REMARK   89  A    between atoms: _245  and  _247
REMARK   90  A    between atoms: _247  and  _248
REMARK   91  A    between atoms: _247  and  _250
REMARK   92  A    between atoms: _250  and  _251
REMARK   93  A    between atoms: _256  and  _258
REMARK   94  A    between atoms: _258  and  _259
REMARK   95  A    between atoms: _258  and  _261
REMARK   96  A    between atoms: _261  and  _262
REMARK   97  A    between atoms: _267  and  _269
REMARK   98  A    between atoms: _269  and  _270
REMARK   99  A    between atoms: _269  and  _272
REMARK  100  A    between atoms: _275  and  _277
REMARK  101  A    between atoms: _277  and  _278
REMARK  102  A    between atoms: _277  and  _280
REMARK  103  A    between atoms: _280  and  _281
REMARK  104  A    between atoms: _286  and  _288
REMARK  105  A    between atoms: _288  and  _289
REMARK  106  A    between atoms: _288  and  _291
REMARK  107  A    between atoms: _291  and  _292
REMARK  108  A    between atoms: _295  and  _297
REMARK  109  A    between atoms: _297  and  _298
REMARK  110  A    between atoms: _297  and  _300
REMARK  111  A    between atoms: _300  and  _301
REMARK  112  A    between atoms: _301  and  _302
REMARK  113  A    between atoms: _307  and  _309
REMARK  114  A    between atoms: _309  and  _310
REMARK  115  A    between atoms: _309  and  _312
REMARK  116  A    between atoms: _312  and  _313
REMARK  117  A    between atoms: _318  and  _320
REMARK  118  A    between atoms: _320  and  _321
REMARK  119  A    between atoms: _320  and  _323
REMARK  120  A    between atoms: _323  and  _324
REMARK  121  A    between atoms: _327  and  _329
REMARK  122  A    between atoms: _329  and  _330
REMARK  123  A    between atoms: _329  and  _332
REMARK  124  A    between atoms: _332  and  _333
REMARK  125  A    between atoms: _336  and  _338
REMARK  126  A    between atoms: _338  and  _339
REMARK  127  A    between atoms: _338  and  _341
REMARK  128  A    between atoms: _344  and  _346
REMARK  129  A    between atoms: _346  and  _347
REMARK  130  A    between atoms: _346  and  _349
REMARK  131  A    between atoms: _349  and  _350
REMARK  132  A    between atoms: _354  and  _355
REMARK  133  A    between atoms: _360  and  _362
REMARK  134  A    between atoms: _362  and  _363
REMARK  135  A    between atoms: _362  and  _365
REMARK  136  A    between atoms: _365  and  _366
REMARK  137  A    between atoms: _376  and  _378
REMARK  138  A    between atoms: _378  and  _379
REMARK  139  A    between atoms: _378  and  _381
REMARK  140  A    between atoms: _381  and  _382
REMARK  141  A    between atoms: _387  and  _388
REMARK                            x       y       z     vdW  Elec       q    Type
REMARK                         _______ _______ _______ _____ _____    ______ ____
ROOT
ATOM      1  O   HOH     1     -66.900  14.191 -11.257  0.00  0.00    +0.000 OA
ENDROOT
TORSDOF 0
REMARK  Name = ../refined-set-2016/3o7u/3o7u_pocket.pdb
REMARK  141 active torsions:
REMARK  status: ('A' for Active; 'I' for Inactive)
REMARK    1  A    between atoms: _1  and  _3
REMARK    2  A    between atoms: _14  and  _17
REMARK    3  A    between atoms: _17  and  _18
REMARK    4  A    between atoms: _23  and  _24
REMARK    5  A    between atoms: _32  and  _34
REMARK    6  A    between atoms: _34  and  _35
REMARK    7  A    between atoms: _34  and  _37
REMARK    8  A    between atoms: _37  and  _38
REMARK    9  A    between atoms: _41  and  _43
REMARK   10  A    between atoms: _43  and  _44
REMARK   11  A    between atoms: _43  and  _46
REMARK   12  A    between atoms: _46  and  _47
REMARK   13  A    between atoms: _50  and  _52
REMARK   14  A    between atoms: _52  and  _53
REMARK   15  A    between atoms: _52  and  _55
REMARK   16  A    between atoms: _55  and  _56
REMARK   17  A    between atoms: _59  and  _61
REMARK   18  A    between atoms: _61  and  _62
REMARK   19  A    between atoms: _61  and  _64
REMARK   20  A    between atoms: _64  and  _65
REMARK   21  A    between atoms: _68  and  _70
REMARK   22  A    between atoms: _70  and  _71
REMARK   23  A    between atoms: _70  and  _73
REMARK   24  A    between atoms: _73  and  _74
REMARK   25  A    between atoms: _80  and  _82
REMARK   26  A    between atoms: _82  and  _83
REMARK   27  A    between atoms: _85  and  _87
REMARK   28  A    between atoms: _87  and  _88
REMARK   29  A    between atoms: _87  and  _90
REMARK   30  A    between atoms: _90  and  _91
REMARK   31  A    between atoms: _94  and  _96
REMARK   32  A    between atoms: _96  and  _97
REMARK   33  A    between atoms: _96  and  _99
REMARK   34  A    between atoms: _99  and  _100
REMARK   35  A    between atoms: _110  and  _112
REMARK   36  A    between atoms: _112  and  _113
REMARK   37  A    between atoms: _112  and  _115
REMARK   38  A    between atoms: _115  and  _116
REMARK   39  A    between atoms: _121  and  _123
REMARK   40  A    between atoms: _123  and  _124
REMARK   41  A    between atoms: _123  and  _126
REMARK   42  A    between atoms: _126  and  _127
REMARK   43  A    between atoms: _130  and  _132
REMARK   44  A    between atoms: _132  and  _133
REMARK   45  A    between atoms: _132  and  _135
REMARK   46  A    between atoms: _135  and  _136
REMARK   47  A    between atoms: _143  and  _144
REMARK   48  A    between atoms: _149  and  _151
REMARK   49  A    between atoms: _151  and  _152
REMARK   50  A    between atoms: _151  and  _154
REMARK   51  A    between atoms: _154  and  _155
REMARK   52  A    between atoms: _155  and  _156
REMARK   53  A    between atoms: _161  and  _163
REMARK   54  A    between atoms: _163  and  _164
REMARK   55  A    between atoms: _163  and  _166
REMARK   56  A    between atoms: _166  and  _167
REMARK   57  A    between atoms: _167  and  _168
REMARK   58  A    between atoms: _171  and  _173
REMARK   59  A    between atoms: _173  and  _174
REMARK   60  A    between atoms: _177  and  _179
REMARK   61  A    between atoms: _179  and  _180
REMARK   62  A    between atoms: _179  and  _182
REMARK   63  A    between atoms: _182  and  _183
REMARK   64  A    between atoms: _186  and  _188
REMARK   65  A    between atoms: _188  and  _189
REMARK   66  A    between atoms: _188  and  _191
REMARK   67  A    between atoms: _191  and  _192
REMARK   68  A    between atoms: _197  and  _199
REMARK   69  A    between atoms: _199  and  _200
REMARK   70  A    between atoms: _199  and  _202
REMARK   71  A    between atoms: _202  and  _203
REMARK   72  A    between atoms: _209  and  _211
REMARK   73  A    between atoms: _211  and  _212
REMARK   74  A    between atoms: _211  and  _214
REMARK   75  A    between atoms: _214  and  _215
REMARK   76  A    between atoms: _219  and  ZN_390
REMARK   77  A    between atoms: _220  and  _222
REMARK   78  A    between atoms: _222  and  _223
REMARK   79  A    between atoms: _222  and  _225
REMARK   80  A    between atoms: _227  and  _229
REMARK   81  A    between atoms: _229  and  _230
REMARK   82  A    between atoms: _229  and  _232
REMARK   83  A    between atoms: _232  and  _233
REMARK   84  A    between atoms: _233  and  _234
REMARK   85  A    between atoms: _237  and  _239
REMARK   86  A    between atoms: _239  and  _240
REMARK   87  A    between atoms: _239  and  _242
REMARK   88  A    between atoms: _242  and  _243
REMARK   89  A    between atoms: _245  and  _247
REMARK   90  A    between atoms: _247  and  _248
REMARK   91  A    between atoms: _247  and  _250
REMARK   92  A    between atoms: _250  and  _251
REMARK   93  A    between atoms: _256  and  _258
REMARK   94  A    between atoms: _258  and  _259
REMARK   95  A    between atoms: _258  and  _261
REMARK   96  A    between atoms: _261  and  _262
REMARK   97  A    between atoms: _267  and  _269
REMARK   98  A    between atoms: _269  and  _270
REMARK   99  A    between atoms: _269  and  _272
REMARK  100  A    between atoms: _275  and  _277
REMARK  101  A    between atoms: _277  and  _278
REMARK  102  A    between atoms: _277  and  _280
REMARK  103  A    between atoms: _280  and  _281
REMARK  104  A    between atoms: _286  and  _288
REMARK  105  A    between atoms: _288  and  _289
REMARK  106  A    between atoms: _288  and  _291
REMARK  107  A    between atoms: _291  and  _292
REMARK  108  A    between atoms: _295  and  _297
REMARK  109  A    between atoms: _297  and  _298
REMARK  110  A    between atoms: _297  and  _300
REMARK  111  A    between atoms: _300  and  _301
REMARK  112  A    between atoms: _301  and  _302
REMARK  113  A    between atoms: _307  and  _309
REMARK  114  A    between atoms: _309  and  _310
REMARK  115  A    between atoms: _309  and  _312
REMARK  116  A    between atoms: _312  and  _313
REMARK  117  A    between atoms: _318  and  _320
REMARK  118  A    between atoms: _320  and  _321
REMARK  119  A    between atoms: _320  and  _323
REMARK  120  A    between atoms: _323  and  _324
REMARK  121  A    between atoms: _327  and  _329
REMARK  122  A    between atoms: _329  and  _330
REMARK  123  A    between atoms: _329  and  _332
REMARK  124  A    between atoms: _332  and  _333
REMARK  125  A    between atoms: _336  and  _338
REMARK  126  A    between atoms: _338  and  _339
REMARK  127  A    between atoms: _338  and  _341
REMARK  128  A    between atoms: _344  and  _346
REMARK  129  A    between atoms: _346  and  _347
REMARK  130  A    between atoms: _346  and  _349
REMARK  131  A    between atoms: _349  and  _350
REMARK  132  A    between atoms: _354  and  _355
REMARK  133  A    between atoms: _360  and  _362
REMARK  134  A    between atoms: _362  and  _363
REMARK  135  A    between atoms: _362  and  _365
REMARK  136  A    between atoms: _365  and  _366
REMARK  137  A    between atoms: _376  and  _378
REMARK  138  A    between atoms: _378  and  _379
REMARK  139  A    between atoms: _378  and  _381
REMARK  140  A    between atoms: _381  and  _382
REMARK  141  A    between atoms: _387  and  _388
REMARK                            x       y       z     vdW  Elec       q    Type
REMARK                         _______ _______ _______ _____ _____    ______ ____
ROOT
ATOM      1  O   HOH     1     -68.516  23.209 -15.088  0.00  0.00    +0.000 OA
ENDROOT
TORSDOF 0
REMARK  Name = ../refined-set-2016/3o7u/3o7u_pocket.pdb
REMARK  141 active torsions:
REMARK  status: ('A' for Active; 'I' for Inactive)
REMARK    1  A    between atoms: _1  and  _3
REMARK    2  A    between atoms: _14  and  _17
REMARK    3  A    between atoms: _17  and  _18
REMARK    4  A    between atoms: _23  and  _24
REMARK    5  A    between atoms: _32  and  _34
REMARK    6  A    between atoms: _34  and  _35
REMARK    7  A    between atoms: _34  and  _37
REMARK    8  A    between atoms: _37  and  _38
REMARK    9  A    between atoms: _41  and  _43
REMARK   10  A    between atoms: _43  and  _44
REMARK   11  A    between atoms: _43  and  _46
REMARK   12  A    between atoms: _46  and  _47
REMARK   13  A    between atoms: _50  and  _52
REMARK   14  A    between atoms: _52  and  _53
REMARK   15  A    between atoms: _52  and  _55
REMARK   16  A    between atoms: _55  and  _56
REMARK   17  A    between atoms: _59  and  _61
REMARK   18  A    between atoms: _61  and  _62
REMARK   19  A    between atoms: _61  and  _64
REMARK   20  A    between atoms: _64  and  _65
REMARK   21  A    between atoms: _68  and  _70
REMARK   22  A    between atoms: _70  and  _71
REMARK   23  A    between atoms: _70  and  _73
REMARK   24  A    between atoms: _73  and  _74
REMARK   25  A    between atoms: _80  and  _82
REMARK   26  A    between atoms: _82  and  _83
REMARK   27  A    between atoms: _85  and  _87
REMARK   28  A    between atoms: _87  and  _88
REMARK   29  A    between atoms: _87  and  _90
REMARK   30  A    between atoms: _90  and  _91
REMARK   31  A    between atoms: _94  and  _96
REMARK   32  A    between atoms: _96  and  _97
REMARK   33  A    between atoms: _96  and  _99
REMARK   34  A    between atoms: _99  and  _100
REMARK   35  A    between atoms: _110  and  _112
REMARK   36  A    between atoms: _112  and  _113
REMARK   37  A    between atoms: _112  and  _115
REMARK   38  A    between atoms: _115  and  _116
REMARK   39  A    between atoms: _121  and  _123
REMARK   40  A    between atoms: _123  and  _124
REMARK   41  A    between atoms: _123  and  _126
REMARK   42  A    between atoms: _126  and  _127
REMARK   43  A    between atoms: _130  and  _132
REMARK   44  A    between atoms: _132  and  _133
REMARK   45  A    between atoms: _132  and  _135
REMARK   46  A    between atoms: _135  and  _136
REMARK   47  A    between atoms: _143  and  _144
REMARK   48  A    between atoms: _149  and  _151
REMARK   49  A    between atoms: _151  and  _152
REMARK   50  A    between atoms: _151  and  _154
REMARK   51  A    between atoms: _154  and  _155
REMARK   52  A    between atoms: _155  and  _156
REMARK   53  A    between atoms: _161  and  _163
REMARK   54  A    between atoms: _163  and  _164
REMARK   55  A    between atoms: _163  and  _166
REMARK   56  A    between atoms: _166  and  _167
REMARK   57  A    between atoms: _167  and  _168
REMARK   58  A    between atoms: _171  and  _173
REMARK   59  A    between atoms: _173  and  _174
REMARK   60  A    between atoms: _177  and  _179
REMARK   61  A    between atoms: _179  and  _180
REMARK   62  A    between atoms: _179  and  _182
REMARK   63  A    between atoms: _182  and  _183
REMARK   64  A    between atoms: _186  and  _188
REMARK   65  A    between atoms: _188  and  _189
REMARK   66  A    between atoms: _188  and  _191
REMARK   67  A    between atoms: _191  and  _192
REMARK   68  A    between atoms: _197  and  _199
REMARK   69  A    between atoms: _199  and  _200
REMARK   70  A    between atoms: _199  and  _202
REMARK   71  A    between atoms: _202  and  _203
REMARK   72  A    between atoms: _209  and  _211
REMARK   73  A    between atoms: _211  and  _212
REMARK   74  A    between atoms: _211  and  _214
REMARK   75  A    between atoms: _214  and  _215
REMARK   76  A    between atoms: _219  and  ZN_390
REMARK   77  A    between atoms: _220  and  _222
REMARK   78  A    between atoms: _222  and  _223
REMARK   79  A    between atoms: _222  and  _225
REMARK   80  A    between atoms: _227  and  _229
REMARK   81  A    between atoms: _229  and  _230
REMARK   82  A    between atoms: _229  and  _232
REMARK   83  A    between atoms: _232  and  _233
REMARK   84  A    between atoms: _233  and  _234
REMARK   85  A    between atoms: _237  and  _239
REMARK   86  A    between atoms: _239  and  _240
REMARK   87  A    between atoms: _239  and  _242
REMARK   88  A    between atoms: _242  and  _243
REMARK   89  A    between atoms: _245  and  _247
REMARK   90  A    between atoms: _247  and  _248
REMARK   91  A    between atoms: _247  and  _250
REMARK   92  A    between atoms: _250  and  _251
REMARK   93  A    between atoms: _256  and  _258
REMARK   94  A    between atoms: _258  and  _259
REMARK   95  A    between atoms: _258  and  _261
REMARK   96  A    between atoms: _261  and  _262
REMARK   97  A    between atoms: _267  and  _269
REMARK   98  A    between atoms: _269  and  _270
REMARK   99  A    between atoms: _269  and  _272
REMARK  100  A    between atoms: _275  and  _277
REMARK  101  A    between atoms: _277  and  _278
REMARK  102  A    between atoms: _277  and  _280
REMARK  103  A    between atoms: _280  and  _281
REMARK  104  A    between atoms: _286  and  _288
REMARK  105  A    between atoms: _288  and  _289
REMARK  106  A    between atoms: _288  and  _291
REMARK  107  A    between atoms: _291  and  _292
REMARK  108  A    between atoms: _295  and  _297
REMARK  109  A    between atoms: _297  and  _298
REMARK  110  A    between atoms: _297  and  _300
REMARK  111  A    between atoms: _300  and  _301
REMARK  112  A    between atoms: _301  and  _302
REMARK  113  A    between atoms: _307  and  _309
REMARK  114  A    between atoms: _309  and  _310
REMARK  115  A    between atoms: _309  and  _312
REMARK  116  A    between atoms: _312  and  _313
REMARK  117  A    between atoms: _318  and  _320
REMARK  118  A    between atoms: _320  and  _321
REMARK  119  A    between atoms: _320  and  _323
REMARK  120  A    between atoms: _323  and  _324
REMARK  121  A    between atoms: _327  and  _329
REMARK  122  A    between atoms: _329  and  _330
REMARK  123  A    between atoms: _329  and  _332
REMARK  124  A    between atoms: _332  and  _333
REMARK  125  A    between atoms: _336  and  _338
REMARK  126  A    between atoms: _338  and  _339
REMARK  127  A    between atoms: _338  and  _341
REMARK  128  A    between atoms: _344  and  _346
REMARK  129  A    between atoms: _346  and  _347
REMARK  130  A    between atoms: _346  and  _349
REMARK  131  A    between atoms: _349  and  _350
REMARK  132  A    between atoms: _354  and  _355
REMARK  133  A    between atoms: _360  and  _362
REMARK  134  A    between atoms: _362  and  _363
REMARK  135  A    between atoms: _362  and  _365
REMARK  136  A    between atoms: _365  and  _366
REMARK  137  A    between atoms: _376  and  _378
REMARK  138  A    between atoms: _378  and  _379
REMARK  139  A    between atoms: _378  and  _381
REMARK  140  A    between atoms: _381  and  _382
REMARK  141  A    between atoms: _387  and  _388
REMARK                            x       y       z     vdW  Elec       q    Type
REMARK                         _______ _______ _______ _____ _____    ______ ____
ROOT
ATOM      1  O   HOH     1     -64.357  10.635 -17.414  0.00  0.00    +0.000 OA
ENDROOT
TORSDOF 0
REMARK  Name = ../refined-set-2016/3o7u/3o7u_pocket.pdb
REMARK  141 active torsions:
REMARK  status: ('A' for Active; 'I' for Inactive)
REMARK    1  A    between atoms: _1  and  _3
REMARK    2  A    between atoms: _14  and  _17
REMARK    3  A    between atoms: _17  and  _18
REMARK    4  A    between atoms: _23  and  _24
REMARK    5  A    between atoms: _32  and  _34
REMARK    6  A    between atoms: _34  and  _35
REMARK    7  A    between atoms: _34  and  _37
REMARK    8  A    between atoms: _37  and  _38
REMARK    9  A    between atoms: _41  and  _43
REMARK   10  A    between atoms: _43  and  _44
REMARK   11  A    between atoms: _43  and  _46
REMARK   12  A    between atoms: _46  and  _47
REMARK   13  A    between atoms: _50  and  _52
REMARK   14  A    between atoms: _52  and  _53
REMARK   15  A    between atoms: _52  and  _55
REMARK   16  A    between atoms: _55  and  _56
REMARK   17  A    between atoms: _59  and  _61
REMARK   18  A    between atoms: _61  and  _62
REMARK   19  A    between atoms: _61  and  _64
REMARK   20  A    between atoms: _64  and  _65
REMARK   21  A    between atoms: _68  and  _70
REMARK   22  A    between atoms: _70  and  _71
REMARK   23  A    between atoms: _70  and  _73
REMARK   24  A    between atoms: _73  and  _74
REMARK   25  A    between atoms: _80  and  _82
REMARK   26  A    between atoms: _82  and  _83
REMARK   27  A    between atoms: _85  and  _87
REMARK   28  A    between atoms: _87  and  _88
REMARK   29  A    between atoms: _87  and  _90
REMARK   30  A    between atoms: _90  and  _91
REMARK   31  A    between atoms: _94  and  _96
REMARK   32  A    between atoms: _96  and  _97
REMARK   33  A    between atoms: _96  and  _99
REMARK   34  A    between atoms: _99  and  _100
REMARK   35  A    between atoms: _110  and  _112
REMARK   36  A    between atoms: _112  and  _113
REMARK   37  A    between atoms: _112  and  _115
REMARK   38  A    between atoms: _115  and  _116
REMARK   39  A    between atoms: _121  and  _123
REMARK   40  A    between atoms: _123  and  _124
REMARK   41  A    between atoms: _123  and  _126
REMARK   42  A    between atoms: _126  and  _127
REMARK   43  A    between atoms: _130  and  _132
REMARK   44  A    between atoms: _132  and  _133
REMARK   45  A    between atoms: _132  and  _135
REMARK   46  A    between atoms: _135  and  _136
REMARK   47  A    between atoms: _143  and  _144
REMARK   48  A    between atoms: _149  and  _151
REMARK   49  A    between atoms: _151  and  _152
REMARK   50  A    between atoms: _151  and  _154
REMARK   51  A    between atoms: _154  and  _155
REMARK   52  A    between atoms: _155  and  _156
REMARK   53  A    between atoms: _161  and  _163
REMARK   54  A    between atoms: _163  and  _164
REMARK   55  A    between atoms: _163  and  _166
REMARK   56  A    between atoms: _166  and  _167
REMARK   57  A    between atoms: _167  and  _168
REMARK   58  A    between atoms: _171  and  _173
REMARK   59  A    between atoms: _173  and  _174
REMARK   60  A    between atoms: _177  and  _179
REMARK   61  A    between atoms: _179  and  _180
REMARK   62  A    between atoms: _179  and  _182
REMARK   63  A    between atoms: _182  and  _183
REMARK   64  A    between atoms: _186  and  _188
REMARK   65  A    between atoms: _188  and  _189
REMARK   66  A    between atoms: _188  and  _191
REMARK   67  A    between atoms: _191  and  _192
REMARK   68  A    between atoms: _197  and  _199
REMARK   69  A    between atoms: _199  and  _200
REMARK   70  A    between atoms: _199  and  _202
REMARK   71  A    between atoms: _202  and  _203
REMARK   72  A    between atoms: _209  and  _211
REMARK   73  A    between atoms: _211  and  _212
REMARK   74  A    between atoms: _211  and  _214
REMARK   75  A    between atoms: _214  and  _215
REMARK   76  A    between atoms: _219  and  ZN_390
REMARK   77  A    between atoms: _220  and  _222
REMARK   78  A    between atoms: _222  and  _223
REMARK   79  A    between atoms: _222  and  _225
REMARK   80  A    between atoms: _227  and  _229
REMARK   81  A    between atoms: _229  and  _230
REMARK   82  A    between atoms: _229  and  _232
REMARK   83  A    between atoms: _232  and  _233
REMARK   84  A    between atoms: _233  and  _234
REMARK   85  A    between atoms: _237  and  _239
REMARK   86  A    between atoms: _239  and  _240
REMARK   87  A    between atoms: _239  and  _242
REMARK   88  A    between atoms: _242  and  _243
REMARK   89  A    between atoms: _245  and  _247
REMARK   90  A    between atoms: _247  and  _248
REMARK   91  A    between atoms: _247  and  _250
REMARK   92  A    between atoms: _250  and  _251
REMARK   93  A    between atoms: _256  and  _258
REMARK   94  A    between atoms: _258  and  _259
REMARK   95  A    between atoms: _258  and  _261
REMARK   96  A    between atoms: _261  and  _262
REMARK   97  A    between atoms: _267  and  _269
REMARK   98  A    between atoms: _269  and  _270
REMARK   99  A    between atoms: _269  and  _272
REMARK  100  A    between atoms: _275  and  _277
REMARK  101  A    between atoms: _277  and  _278
REMARK  102  A    between atoms: _277  and  _280
REMARK  103  A    between atoms: _280  and  _281
REMARK  104  A    between atoms: _286  and  _288
REMARK  105  A    between atoms: _288  and  _289
REMARK  106  A    between atoms: _288  and  _291
REMARK  107  A    between atoms: _291  and  _292
REMARK  108  A    between atoms: _295  and  _297
REMARK  109  A    between atoms: _297  and  _298
REMARK  110  A    between atoms: _297  and  _300
REMARK  111  A    between atoms: _300  and  _301
REMARK  112  A    between atoms: _301  and  _302
REMARK  113  A    between atoms: _307  and  _309
REMARK  114  A    between atoms: _309  and  _310
REMARK  115  A    between atoms: _309  and  _312
REMARK  116  A    between atoms: _312  and  _313
REMARK  117  A    between atoms: _318  and  _320
REMARK  118  A    between atoms: _320  and  _321
REMARK  119  A    between atoms: _320  and  _323
REMARK  120  A    between atoms: _323  and  _324
REMARK  121  A    between atoms: _327  and  _329
REMARK  122  A    between atoms: _329  and  _330
REMARK  123  A    between atoms: _329  and  _332
REMARK  124  A    between atoms: _332  and  _333
REMARK  125  A    between atoms: _336  and  _338
REMARK  126  A    between atoms: _338  and  _339
REMARK  127  A    between atoms: _338  and  _341
REMARK  128  A    between atoms: _344  and  _346
REMARK  129  A    between atoms: _346  and  _347
REMARK  130  A    between atoms: _346  and  _349
REMARK  131  A    between atoms: _349  and  _350
REMARK  132  A    between atoms: _354  and  _355
REMARK  133  A    between atoms: _360  and  _362
REMARK  134  A    between atoms: _362  and  _363
REMARK  135  A    between atoms: _362  and  _365
REMARK  136  A    between atoms: _365  and  _366
REMARK  137  A    between atoms: _376  and  _378
REMARK  138  A    between atoms: _378  and  _379
REMARK  139  A    between atoms: _378  and  _381
REMARK  140  A    between atoms: _381  and  _382
REMARK  141  A    between atoms: _387  and  _388
REMARK                            x       y       z     vdW  Elec       q    Type
REMARK                         _______ _______ _______ _____ _____    ______ ____
ROOT
ATOM      1  O   HOH     1     -69.510  14.888 -11.946  0.00  0.00    +0.000 OA
ENDROOT
TORSDOF 0
REMARK  Name = ../refined-set-2016/3o7u/3o7u_pocket.pdb
REMARK  141 active torsions:
REMARK  status: ('A' for Active; 'I' for Inactive)
REMARK    1  A    between atoms: _1  and  _3
REMARK    2  A    between atoms: _14  and  _17
REMARK    3  A    between atoms: _17  and  _18
REMARK    4  A    between atoms: _23  and  _24
REMARK    5  A    between atoms: _32  and  _34
REMARK    6  A    between atoms: _34  and  _35
REMARK    7  A    between atoms: _34  and  _37
REMARK    8  A    between atoms: _37  and  _38
REMARK    9  A    between atoms: _41  and  _43
REMARK   10  A    between atoms: _43  and  _44
REMARK   11  A    between atoms: _43  and  _46
REMARK   12  A    between atoms: _46  and  _47
REMARK   13  A    between atoms: _50  and  _52
REMARK   14  A    between atoms: _52  and  _53
REMARK   15  A    between atoms: _52  and  _55
REMARK   16  A    between atoms: _55  and  _56
REMARK   17  A    between atoms: _59  and  _61
REMARK   18  A    between atoms: _61  and  _62
REMARK   19  A    between atoms: _61  and  _64
REMARK   20  A    between atoms: _64  and  _65
REMARK   21  A    between atoms: _68  and  _70
REMARK   22  A    between atoms: _70  and  _71
REMARK   23  A    between atoms: _70  and  _73
REMARK   24  A    between atoms: _73  and  _74
REMARK   25  A    between atoms: _80  and  _82
REMARK   26  A    between atoms: _82  and  _83
REMARK   27  A    between atoms: _85  and  _87
REMARK   28  A    between atoms: _87  and  _88
REMARK   29  A    between atoms: _87  and  _90
REMARK   30  A    between atoms: _90  and  _91
REMARK   31  A    between atoms: _94  and  _96
REMARK   32  A    between atoms: _96  and  _97
REMARK   33  A    between atoms: _96  and  _99
REMARK   34  A    between atoms: _99  and  _100
REMARK   35  A    between atoms: _110  and  _112
REMARK   36  A    between atoms: _112  and  _113
REMARK   37  A    between atoms: _112  and  _115
REMARK   38  A    between atoms: _115  and  _116
REMARK   39  A    between atoms: _121  and  _123
REMARK   40  A    between atoms: _123  and  _124
REMARK   41  A    between atoms: _123  and  _126
REMARK   42  A    between atoms: _126  and  _127
REMARK   43  A    between atoms: _130  and  _132
REMARK   44  A    between atoms: _132  and  _133
REMARK   45  A    between atoms: _132  and  _135
REMARK   46  A    between atoms: _135  and  _136
REMARK   47  A    between atoms: _143  and  _144
REMARK   48  A    between atoms: _149  and  _151
REMARK   49  A    between atoms: _151  and  _152
REMARK   50  A    between atoms: _151  and  _154
REMARK   51  A    between atoms: _154  and  _155
REMARK   52  A    between atoms: _155  and  _156
REMARK   53  A    between atoms: _161  and  _163
REMARK   54  A    between atoms: _163  and  _164
REMARK   55  A    between atoms: _163  and  _166
REMARK   56  A    between atoms: _166  and  _167
REMARK   57  A    between atoms: _167  and  _168
REMARK   58  A    between atoms: _171  and  _173
REMARK   59  A    between atoms: _173  and  _174
REMARK   60  A    between atoms: _177  and  _179
REMARK   61  A    between atoms: _179  and  _180
REMARK   62  A    between atoms: _179  and  _182
REMARK   63  A    between atoms: _182  and  _183
REMARK   64  A    between atoms: _186  and  _188
REMARK   65  A    between atoms: _188  and  _189
REMARK   66  A    between atoms: _188  and  _191
REMARK   67  A    between atoms: _191  and  _192
REMARK   68  A    between atoms: _197  and  _199
REMARK   69  A    between atoms: _199  and  _200
REMARK   70  A    between atoms: _199  and  _202
REMARK   71  A    between atoms: _202  and  _203
REMARK   72  A    between atoms: _209  and  _211
REMARK   73  A    between atoms: _211  and  _212
REMARK   74  A    between atoms: _211  and  _214
REMARK   75  A    between atoms: _214  and  _215
REMARK   76  A    between atoms: _219  and  ZN_390
REMARK   77  A    between atoms: _220  and  _222
REMARK   78  A    between atoms: _222  and  _223
REMARK   79  A    between atoms: _222  and  _225
REMARK   80  A    between atoms: _227  and  _229
REMARK   81  A    between atoms: _229  and  _230
REMARK   82  A    between atoms: _229  and  _232
REMARK   83  A    between atoms: _232  and  _233
REMARK   84  A    between atoms: _233  and  _234
REMARK   85  A    between atoms: _237  and  _239
REMARK   86  A    between atoms: _239  and  _240
REMARK   87  A    between atoms: _239  and  _242
REMARK   88  A    between atoms: _242  and  _243
REMARK   89  A    between atoms: _245  and  _247
REMARK   90  A    between atoms: _247  and  _248
REMARK   91  A    between atoms: _247  and  _250
REMARK   92  A    between atoms: _250  and  _251
REMARK   93  A    between atoms: _256  and  _258
REMARK   94  A    between atoms: _258  and  _259
REMARK   95  A    between atoms: _258  and  _261
REMARK   96  A    between atoms: _261  and  _262
REMARK   97  A    between atoms: _267  and  _269
REMARK   98  A    between atoms: _269  and  _270
REMARK   99  A    between atoms: _269  and  _272
REMARK  100  A    between atoms: _275  and  _277
REMARK  101  A    between atoms: _277  and  _278
REMARK  102  A    between atoms: _277  and  _280
REMARK  103  A    between atoms: _280  and  _281
REMARK  104  A    between atoms: _286  and  _288
REMARK  105  A    between atoms: _288  and  _289
REMARK  106  A    between atoms: _288  and  _291
REMARK  107  A    between atoms: _291  and  _292
REMARK  108  A    between atoms: _295  and  _297
REMARK  109  A    between atoms: _297  and  _298
REMARK  110  A    between atoms: _297  and  _300
REMARK  111  A    between atoms: _300  and  _301
REMARK  112  A    between atoms: _301  and  _302
REMARK  113  A    between atoms: _307  and  _309
REMARK  114  A    between atoms: _309  and  _310
REMARK  115  A    between atoms: _309  and  _312
REMARK  116  A    between atoms: _312  and  _313
REMARK  117  A    between atoms: _318  and  _320
REMARK  118  A    between atoms: _320  and  _321
REMARK  119  A    between atoms: _320  and  _323
REMARK  120  A    between atoms: _323  and  _324
REMARK  121  A    between atoms: _327  and  _329
REMARK  122  A    between atoms: _329  and  _330
REMARK  123  A    between atoms: _329  and  _332
REMARK  124  A    between atoms: _332  and  _333
REMARK  125  A    between atoms: _336  and  _338
REMARK  126  A    between atoms: _338  and  _339
REMARK  127  A    between atoms: _338  and  _341
REMARK  128  A    between atoms: _344  and  _346
REMARK  129  A    between atoms: _346  and  _347
REMARK  130  A    between atoms: _346  and  _349
REMARK  131  A    between atoms: _349  and  _350
REMARK  132  A    between atoms: _354  and  _355
REMARK  133  A    between atoms: _360  and  _362
REMARK  134  A    between atoms: _362  and  _363
REMARK  135  A    between atoms: _362  and  _365
REMARK  136  A    between atoms: _365  and  _366
REMARK  137  A    between atoms: _376  and  _378
REMARK  138  A    between atoms: _378  and  _379
REMARK  139  A    between atoms: _378  and  _381
REMARK  140  A    between atoms: _381  and  _382
REMARK  141  A    between atoms: _387  and  _388
REMARK                            x       y       z     vdW  Elec       q    Type
REMARK                         _______ _______ _______ _____ _____    ______ ____
ROOT
ATOM      1  O   HOH     1     -63.537  21.476  -9.219  0.00  0.00    +0.000 OA
ENDROOT
TORSDOF 0
REMARK  Name = ../refined-set-2016/3o7u/3o7u_pocket.pdb
REMARK  141 active torsions:
REMARK  status: ('A' for Active; 'I' for Inactive)
REMARK    1  A    between atoms: _1  and  _3
REMARK    2  A    between atoms: _14  and  _17
REMARK    3  A    between atoms: _17  and  _18
REMARK    4  A    between atoms: _23  and  _24
REMARK    5  A    between atoms: _32  and  _34
REMARK    6  A    between atoms: _34  and  _35
REMARK    7  A    between atoms: _34  and  _37
REMARK    8  A    between atoms: _37  and  _38
REMARK    9  A    between atoms: _41  and  _43
REMARK   10  A    between atoms: _43  and  _44
REMARK   11  A    between atoms: _43  and  _46
REMARK   12  A    between atoms: _46  and  _47
REMARK   13  A    between atoms: _50  and  _52
REMARK   14  A    between atoms: _52  and  _53
REMARK   15  A    between atoms: _52  and  _55
REMARK   16  A    between atoms: _55  and  _56
REMARK   17  A    between atoms: _59  and  _61
REMARK   18  A    between atoms: _61  and  _62
REMARK   19  A    between atoms: _61  and  _64
REMARK   20  A    between atoms: _64  and  _65
REMARK   21  A    between atoms: _68  and  _70
REMARK   22  A    between atoms: _70  and  _71
REMARK   23  A    between atoms: _70  and  _73
REMARK   24  A    between atoms: _73  and  _74
REMARK   25  A    between atoms: _80  and  _82
REMARK   26  A    between atoms: _82  and  _83
REMARK   27  A    between atoms: _85  and  _87
REMARK   28  A    between atoms: _87  and  _88
REMARK   29  A    between atoms: _87  and  _90
REMARK   30  A    between atoms: _90  and  _91
REMARK   31  A    between atoms: _94  and  _96
REMARK   32  A    between atoms: _96  and  _97
REMARK   33  A    between atoms: _96  and  _99
REMARK   34  A    between atoms: _99  and  _100
REMARK   35  A    between atoms: _110  and  _112
REMARK   36  A    between atoms: _112  and  _113
REMARK   37  A    between atoms: _112  and  _115
REMARK   38  A    between atoms: _115  and  _116
REMARK   39  A    between atoms: _121  and  _123
REMARK   40  A    between atoms: _123  and  _124
REMARK   41  A    between atoms: _123  and  _126
REMARK   42  A    between atoms: _126  and  _127
REMARK   43  A    between atoms: _130  and  _132
REMARK   44  A    between atoms: _132  and  _133
REMARK   45  A    between atoms: _132  and  _135
REMARK   46  A    between atoms: _135  and  _136
REMARK   47  A    between atoms: _143  and  _144
REMARK   48  A    between atoms: _149  and  _151
REMARK   49  A    between atoms: _151  and  _152
REMARK   50  A    between atoms: _151  and  _154
REMARK   51  A    between atoms: _154  and  _155
REMARK   52  A    between atoms: _155  and  _156
REMARK   53  A    between atoms: _161  and  _163
REMARK   54  A    between atoms: _163  and  _164
REMARK   55  A    between atoms: _163  and  _166
REMARK   56  A    between atoms: _166  and  _167
REMARK   57  A    between atoms: _167  and  _168
REMARK   58  A    between atoms: _171  and  _173
REMARK   59  A    between atoms: _173  and  _174
REMARK   60  A    between atoms: _177  and  _179
REMARK   61  A    between atoms: _179  and  _180
REMARK   62  A    between atoms: _179  and  _182
REMARK   63  A    between atoms: _182  and  _183
REMARK   64  A    between atoms: _186  and  _188
REMARK   65  A    between atoms: _188  and  _189
REMARK   66  A    between atoms: _188  and  _191
REMARK   67  A    between atoms: _191  and  _192
REMARK   68  A    between atoms: _197  and  _199
REMARK   69  A    between atoms: _199  and  _200
REMARK   70  A    between atoms: _199  and  _202
REMARK   71  A    between atoms: _202  and  _203
REMARK   72  A    between atoms: _209  and  _211
REMARK   73  A    between atoms: _211  and  _212
REMARK   74  A    between atoms: _211  and  _214
REMARK   75  A    between atoms: _214  and  _215
REMARK   76  A    between atoms: _219  and  ZN_390
REMARK   77  A    between atoms: _220  and  _222
REMARK   78  A    between atoms: _222  and  _223
REMARK   79  A    between atoms: _222  and  _225
REMARK   80  A    between atoms: _227  and  _229
REMARK   81  A    between atoms: _229  and  _230
REMARK   82  A    between atoms: _229  and  _232
REMARK   83  A    between atoms: _232  and  _233
REMARK   84  A    between atoms: _233  and  _234
REMARK   85  A    between atoms: _237  and  _239
REMARK   86  A    between atoms: _239  and  _240
REMARK   87  A    between atoms: _239  and  _242
REMARK   88  A    between atoms: _242  and  _243
REMARK   89  A    between atoms: _245  and  _247
REMARK   90  A    between atoms: _247  and  _248
REMARK   91  A    between atoms: _247  and  _250
REMARK   92  A    between atoms: _250  and  _251
REMARK   93  A    between atoms: _256  and  _258
REMARK   94  A    between atoms: _258  and  _259
REMARK   95  A    between atoms: _258  and  _261
REMARK   96  A    between atoms: _261  and  _262
REMARK   97  A    between atoms: _267  and  _269
REMARK   98  A    between atoms: _269  and  _270
REMARK   99  A    between atoms: _269  and  _272
REMARK  100  A    between atoms: _275  and  _277
REMARK  101  A    between atoms: _277  and  _278
REMARK  102  A    between atoms: _277  and  _280
REMARK  103  A    between atoms: _280  and  _281
REMARK  104  A    between atoms: _286  and  _288
REMARK  105  A    between atoms: _288  and  _289
REMARK  106  A    between atoms: _288  and  _291
REMARK  107  A    between atoms: _291  and  _292
REMARK  108  A    between atoms: _295  and  _297
REMARK  109  A    between atoms: _297  and  _298
REMARK  110  A    between atoms: _297  and  _300
REMARK  111  A    between atoms: _300  and  _301
REMARK  112  A    between atoms: _301  and  _302
REMARK  113  A    between atoms: _307  and  _309
REMARK  114  A    between atoms: _309  and  _310
REMARK  115  A    between atoms: _309  and  _312
REMARK  116  A    between atoms: _312  and  _313
REMARK  117  A    between atoms: _318  and  _320
REMARK  118  A    between atoms: _320  and  _321
REMARK  119  A    between atoms: _320  and  _323
REMARK  120  A    between atoms: _323  and  _324
REMARK  121  A    between atoms: _327  and  _329
REMARK  122  A    between atoms: _329  and  _330
REMARK  123  A    between atoms: _329  and  _332
REMARK  124  A    between atoms: _332  and  _333
REMARK  125  A    between atoms: _336  and  _338
REMARK  126  A    between atoms: _338  and  _339
REMARK  127  A    between atoms: _338  and  _341
REMARK  128  A    between atoms: _344  and  _346
REMARK  129  A    between atoms: _346  and  _347
REMARK  130  A    between atoms: _346  and  _349
REMARK  131  A    between atoms: _349  and  _350
REMARK  132  A    between atoms: _354  and  _355
REMARK  133  A    between atoms: _360  and  _362
REMARK  134  A    between atoms: _362  and  _363
REMARK  135  A    between atoms: _362  and  _365
REMARK  136  A    between atoms: _365  and  _366
REMARK  137  A    between atoms: _376  and  _378
REMARK  138  A    between atoms: _378  and  _379
REMARK  139  A    between atoms: _378  and  _381
REMARK  140  A    between atoms: _381  and  _382
REMARK  141  A    between atoms: _387  and  _388
REMARK                            x       y       z     vdW  Elec       q    Type
REMARK                         _______ _______ _______ _____ _____    ______ ____
ROOT
ATOM      1  O   HOH     1     -70.306  25.107 -21.270  0.00  0.00    +0.000 OA
ENDROOT
TORSDOF 0
