REMARK  Name = ../refined-set-2016/3oyq/3oyq_pocket.pdb
REMARK  165 active torsions:
REMARK  status: ('A' for Active; 'I' for Inactive)
REMARK    1  A    between atoms: _1  and  _3
REMARK    2  A    between atoms: _3  and  _4
REMARK    3  A    between atoms: _3  and  _6
REMARK    4  A    between atoms: _6  and  _7
REMARK    5  A    between atoms: _17  and  _19
REMARK    6  A    between atoms: _19  and  _20
REMARK    7  A    between atoms: _19  and  _22
REMARK    8  A    between atoms: _22  and  _23
REMARK    9  A    between atoms: _28  and  _29
REMARK   10  A    between atoms: _31  and  _33
REMARK   11  A    between atoms: _33  and  _34
REMARK   12  A    between atoms: _33  and  _36
REMARK   13  A    between atoms: _36  and  _37
REMARK   14  A    between atoms: _43  and  _45
REMARK   15  A    between atoms: _45  and  _46
REMARK   16  A    between atoms: _45  and  _48
REMARK   17  A    between atoms: _48  and  _49
REMARK   18  A    between atoms: _52  and  _53
REMARK   19  A    between atoms: _58  and  _60
REMARK   20  A    between atoms: _60  and  _61
REMARK   21  A    between atoms: _60  and  _63
REMARK   22  A    between atoms: _63  and  _64
REMARK   23  A    between atoms: _69  and  _71
REMARK   24  A    between atoms: _71  and  _72
REMARK   25  A    between atoms: _71  and  _74
REMARK   26  A    between atoms: _74  and  _75
REMARK   27  A    between atoms: _80  and  _82
REMARK   28  A    between atoms: _82  and  _83
REMARK   29  A    between atoms: _86  and  _88
REMARK   30  A    between atoms: _88  and  _89
REMARK   31  A    between atoms: _88  and  _91
REMARK   32  A    between atoms: _91  and  _92
REMARK   33  A    between atoms: _97  and  _99
REMARK   34  A    between atoms: _99  and  _100
REMARK   35  A    between atoms: _99  and  _102
REMARK   36  A    between atoms: _102  and  _103
REMARK   37  A    between atoms: _106  and  _108
REMARK   38  A    between atoms: _108  and  _109
REMARK   39  A    between atoms: _108  and  _111
REMARK   40  A    between atoms: _111  and  _112
REMARK   41  A    between atoms: _112  and  _113
REMARK   42  A    between atoms: _118  and  _120
REMARK   43  A    between atoms: _120  and  _121
REMARK   44  A    between atoms: _120  and  _123
REMARK   45  A    between atoms: _123  and  _124
REMARK   46  A    between atoms: _130  and  _132
REMARK   47  A    between atoms: _143  and  _146
REMARK   48  A    between atoms: _146  and  _147
REMARK   49  A    between atoms: _155  and  _156
REMARK   50  A    between atoms: _164  and  _166
REMARK   51  A    between atoms: _166  and  _167
REMARK   52  A    between atoms: _166  and  _169
REMARK   53  A    between atoms: _169  and  _170
REMARK   54  A    between atoms: _170  and  _171
REMARK   55  A    between atoms: _174  and  _176
REMARK   56  A    between atoms: _176  and  _177
REMARK   57  A    between atoms: _176  and  _179
REMARK   58  A    between atoms: _179  and  _180
REMARK   59  A    between atoms: _185  and  _187
REMARK   60  A    between atoms: _187  and  _188
REMARK   61  A    between atoms: _187  and  _190
REMARK   62  A    between atoms: _190  and  _191
REMARK   63  A    between atoms: _191  and  _192
REMARK   64  A    between atoms: _195  and  _197
REMARK   65  A    between atoms: _197  and  _198
REMARK   66  A    between atoms: _197  and  _200
REMARK   67  A    between atoms: _200  and  _201
REMARK   68  A    between atoms: _204  and  _206
REMARK   69  A    between atoms: _206  and  _207
REMARK   70  A    between atoms: _206  and  _209
REMARK   71  A    between atoms: _209  and  _210
REMARK   72  A    between atoms: _211  and  ZN_456
REMARK   73  A    between atoms: _215  and  _217
REMARK   74  A    between atoms: _217  and  _218
REMARK   75  A    between atoms: _217  and  _220
REMARK   76  A    between atoms: _220  and  _221
REMARK   77  A    between atoms: _224  and  _226
REMARK   78  A    between atoms: _226  and  _227
REMARK   79  A    between atoms: _226  and  _229
REMARK   80  A    between atoms: _232  and  _234
REMARK   81  A    between atoms: _234  and  _235
REMARK   82  A    between atoms: _234  and  _237
REMARK   83  A    between atoms: _237  and  _238
REMARK   84  A    between atoms: _243  and  _245
REMARK   85  A    between atoms: _245  and  _246
REMARK   86  A    between atoms: _245  and  _248
REMARK   87  A    between atoms: _248  and  _249
REMARK   88  A    between atoms: _255  and  _257
REMARK   89  A    between atoms: _257  and  _258
REMARK   90  A    between atoms: _260  and  _262
REMARK   91  A    between atoms: _262  and  _263
REMARK   92  A    between atoms: _262  and  _265
REMARK   93  A    between atoms: _265  and  _266
REMARK   94  A    between atoms: _266  and  _267
REMARK   95  A    between atoms: _267  and  _268
REMARK   96  A    between atoms: _268  and  _269
REMARK   97  A    between atoms: _273  and  _275
REMARK   98  A    between atoms: _275  and  _276
REMARK   99  A    between atoms: _275  and  _278
REMARK  100  A    between atoms: _281  and  _283
REMARK  101  A    between atoms: _283  and  _284
REMARK  102  A    between atoms: _283  and  _286
REMARK  103  A    between atoms: _286  and  _287
REMARK  104  A    between atoms: _287  and  _288
REMARK  105  A    between atoms: _293  and  _295
REMARK  106  A    between atoms: _295  and  _296
REMARK  107  A    between atoms: _295  and  _298
REMARK  108  A    between atoms: _298  and  _299
REMARK  109  A    between atoms: _302  and  _304
REMARK  110  A    between atoms: _304  and  _305
REMARK  111  A    between atoms: _308  and  _310
REMARK  112  A    between atoms: _310  and  _311
REMARK  113  A    between atoms: _310  and  _313
REMARK  114  A    between atoms: _316  and  _318
REMARK  115  A    between atoms: _318  and  _319
REMARK  116  A    between atoms: _318  and  _321
REMARK  117  A    between atoms: _321  and  _322
REMARK  118  A    between atoms: _325  and  _327
REMARK  119  A    between atoms: _327  and  _328
REMARK  120  A    between atoms: _330  and  _332
REMARK  121  A    between atoms: _332  and  _333
REMARK  122  A    between atoms: _332  and  _335
REMARK  123  A    between atoms: _335  and  _336
REMARK  124  A    between atoms: _338  and  _340
REMARK  125  A    between atoms: _340  and  _341
REMARK  126  A    between atoms: _340  and  _343
REMARK  127  A    between atoms: _343  and  _344
REMARK  128  A    between atoms: _347  and  _349
REMARK  129  A    between atoms: _349  and  _350
REMARK  130  A    between atoms: _349  and  _352
REMARK  131  A    between atoms: _352  and  _353
REMARK  132  A    between atoms: _356  and  _358
REMARK  133  A    between atoms: _358  and  _359
REMARK  134  A    between atoms: _358  and  _361
REMARK  135  A    between atoms: _361  and  _362
REMARK  136  A    between atoms: _366  and  _367
REMARK  137  A    between atoms: _373  and  _374
REMARK  138  A    between atoms: _379  and  _381
REMARK  139  A    between atoms: _381  and  _382
REMARK  140  A    between atoms: _381  and  _384
REMARK  141  A    between atoms: _384  and  _385
REMARK  142  A    between atoms: _388  and  _390
REMARK  143  A    between atoms: _390  and  _391
REMARK  144  A    between atoms: _390  and  _393
REMARK  145  A    between atoms: _393  and  _394
REMARK  146  A    between atoms: _397  and  _399
REMARK  147  A    between atoms: _399  and  _400
REMARK  148  A    between atoms: _399  and  _402
REMARK  149  A    between atoms: _404  and  _406
REMARK  150  A    between atoms: _406  and  _407
REMARK  151  A    between atoms: _406  and  _409
REMARK  152  A    between atoms: _412  and  _414
REMARK  153  A    between atoms: _414  and  _415
REMARK  154  A    between atoms: _414  and  _417
REMARK  155  A    between atoms: _417  and  _418
REMARK  156  A    between atoms: _428  and  _430
REMARK  157  A    between atoms: _430  and  _431
REMARK  158  A    between atoms: _430  and  _433
REMARK  159  A    between atoms: _433  and  _434
REMARK  160  A    between atoms: _439  and  _441
REMARK  161  A    between atoms: _441  and  _442
REMARK  162  A    between atoms: _441  and  _444
REMARK  163  A    between atoms: _444  and  _445
REMARK  164  A    between atoms: _445  and  _446
REMARK  165  A    between atoms: _446  and  _447
REMARK                            x       y       z     vdW  Elec       q    Type
REMARK                         _______ _______ _______ _____ _____    ______ ____
ROOT
ATOM      1  CG  TRP A   1       5.932   0.175  12.208  0.00  0.00    -0.002 A 
ATOM      2  CD2 TRP A   1       4.573  -0.268  12.108  0.00  0.00    +0.013 A 
ATOM      3  CE3 TRP A   1       3.931  -1.500  12.320  0.00  0.00    +0.001 A 
ATOM      4  CZ3 TRP A   1       2.564  -1.561  12.139  0.00  0.00    +0.000 A 
ATOM      5  CH2 TRP A   1       1.833  -0.434  11.745  0.00  0.00    +0.001 A 
ATOM      6  CZ2 TRP A   1       2.423   0.769  11.541  0.00  0.00    +0.017 A 
ATOM      7  CE2 TRP A   1       3.799   0.847  11.717  0.00  0.00    +0.056 A 
ATOM      8  NE1 TRP A   1       4.640   1.924  11.602  0.00  0.00    -0.352 N 
ATOM      9  HE1 TRP A   1       4.351   2.890  11.345  0.00  0.00    +0.166 HD
ATOM     10  CD1 TRP A   1       5.921   1.525  11.879  0.00  0.00    +0.068 A 
ENDROOT
BRANCH   1  11
ATOM     11  CB  TRP A   1       7.110  -0.664  12.585  0.00  0.00    +0.053 C 
BRANCH  11  12
ATOM     12  CA  TRP A   1       7.797  -1.353  11.407  0.00  0.00    +0.137 C 
BRANCH  12  13
ATOM     13  N   TRP A   1       8.500  -0.384  10.593  0.00  0.00    -0.239 NA
ATOM     14  H   TRP A   1       8.341   0.631  10.756  0.00  0.00    +0.142 HD
ENDBRANCH  12  13
BRANCH  12  15
ATOM     15  C   TRP A   1       6.781  -2.131  10.576  0.00  0.00    +0.224 C 
ATOM     16  O   TRP A   1       6.226  -1.642   9.581  0.00  0.00    -0.287 OA
ENDBRANCH  12  15
ENDBRANCH  11  12
ENDBRANCH   1  11
TORSDOF 4
REMARK  Name = ../refined-set-2016/3oyq/3oyq_pocket.pdb
REMARK  165 active torsions:
REMARK  status: ('A' for Active; 'I' for Inactive)
REMARK    1  A    between atoms: _1  and  _3
REMARK    2  A    between atoms: _3  and  _4
REMARK    3  A    between atoms: _3  and  _6
REMARK    4  A    between atoms: _6  and  _7
REMARK    5  A    between atoms: _17  and  _19
REMARK    6  A    between atoms: _19  and  _20
REMARK    7  A    between atoms: _19  and  _22
REMARK    8  A    between atoms: _22  and  _23
REMARK    9  A    between atoms: _28  and  _29
REMARK   10  A    between atoms: _31  and  _33
REMARK   11  A    between atoms: _33  and  _34
REMARK   12  A    between atoms: _33  and  _36
REMARK   13  A    between atoms: _36  and  _37
REMARK   14  A    between atoms: _43  and  _45
REMARK   15  A    between atoms: _45  and  _46
REMARK   16  A    between atoms: _45  and  _48
REMARK   17  A    between atoms: _48  and  _49
REMARK   18  A    between atoms: _52  and  _53
REMARK   19  A    between atoms: _58  and  _60
REMARK   20  A    between atoms: _60  and  _61
REMARK   21  A    between atoms: _60  and  _63
REMARK   22  A    between atoms: _63  and  _64
REMARK   23  A    between atoms: _69  and  _71
REMARK   24  A    between atoms: _71  and  _72
REMARK   25  A    between atoms: _71  and  _74
REMARK   26  A    between atoms: _74  and  _75
REMARK   27  A    between atoms: _80  and  _82
REMARK   28  A    between atoms: _82  and  _83
REMARK   29  A    between atoms: _86  and  _88
REMARK   30  A    between atoms: _88  and  _89
REMARK   31  A    between atoms: _88  and  _91
REMARK   32  A    between atoms: _91  and  _92
REMARK   33  A    between atoms: _97  and  _99
REMARK   34  A    between atoms: _99  and  _100
REMARK   35  A    between atoms: _99  and  _102
REMARK   36  A    between atoms: _102  and  _103
REMARK   37  A    between atoms: _106  and  _108
REMARK   38  A    between atoms: _108  and  _109
REMARK   39  A    between atoms: _108  and  _111
REMARK   40  A    between atoms: _111  and  _112
REMARK   41  A    between atoms: _112  and  _113
REMARK   42  A    between atoms: _118  and  _120
REMARK   43  A    between atoms: _120  and  _121
REMARK   44  A    between atoms: _120  and  _123
REMARK   45  A    between atoms: _123  and  _124
REMARK   46  A    between atoms: _130  and  _132
REMARK   47  A    between atoms: _143  and  _146
REMARK   48  A    between atoms: _146  and  _147
REMARK   49  A    between atoms: _155  and  _156
REMARK   50  A    between atoms: _164  and  _166
REMARK   51  A    between atoms: _166  and  _167
REMARK   52  A    between atoms: _166  and  _169
REMARK   53  A    between atoms: _169  and  _170
REMARK   54  A    between atoms: _170  and  _171
REMARK   55  A    between atoms: _174  and  _176
REMARK   56  A    between atoms: _176  and  _177
REMARK   57  A    between atoms: _176  and  _179
REMARK   58  A    between atoms: _179  and  _180
REMARK   59  A    between atoms: _185  and  _187
REMARK   60  A    between atoms: _187  and  _188
REMARK   61  A    between atoms: _187  and  _190
REMARK   62  A    between atoms: _190  and  _191
REMARK   63  A    between atoms: _191  and  _192
REMARK   64  A    between atoms: _195  and  _197
REMARK   65  A    between atoms: _197  and  _198
REMARK   66  A    between atoms: _197  and  _200
REMARK   67  A    between atoms: _200  and  _201
REMARK   68  A    between atoms: _204  and  _206
REMARK   69  A    between atoms: _206  and  _207
REMARK   70  A    between atoms: _206  and  _209
REMARK   71  A    between atoms: _209  and  _210
REMARK   72  A    between atoms: _211  and  ZN_456
REMARK   73  A    between atoms: _215  and  _217
REMARK   74  A    between atoms: _217  and  _218
REMARK   75  A    between atoms: _217  and  _220
REMARK   76  A    between atoms: _220  and  _221
REMARK   77  A    between atoms: _224  and  _226
REMARK   78  A    between atoms: _226  and  _227
REMARK   79  A    between atoms: _226  and  _229
REMARK   80  A    between atoms: _232  and  _234
REMARK   81  A    between atoms: _234  and  _235
REMARK   82  A    between atoms: _234  and  _237
REMARK   83  A    between atoms: _237  and  _238
REMARK   84  A    between atoms: _243  and  _245
REMARK   85  A    between atoms: _245  and  _246
REMARK   86  A    between atoms: _245  and  _248
REMARK   87  A    between atoms: _248  and  _249
REMARK   88  A    between atoms: _255  and  _257
REMARK   89  A    between atoms: _257  and  _258
REMARK   90  A    between atoms: _260  and  _262
REMARK   91  A    between atoms: _262  and  _263
REMARK   92  A    between atoms: _262  and  _265
REMARK   93  A    between atoms: _265  and  _266
REMARK   94  A    between atoms: _266  and  _267
REMARK   95  A    between atoms: _267  and  _268
REMARK   96  A    between atoms: _268  and  _269
REMARK   97  A    between atoms: _273  and  _275
REMARK   98  A    between atoms: _275  and  _276
REMARK   99  A    between atoms: _275  and  _278
REMARK  100  A    between atoms: _281  and  _283
REMARK  101  A    between atoms: _283  and  _284
REMARK  102  A    between atoms: _283  and  _286
REMARK  103  A    between atoms: _286  and  _287
REMARK  104  A    between atoms: _287  and  _288
REMARK  105  A    between atoms: _293  and  _295
REMARK  106  A    between atoms: _295  and  _296
REMARK  107  A    between atoms: _295  and  _298
REMARK  108  A    between atoms: _298  and  _299
REMARK  109  A    between atoms: _302  and  _304
REMARK  110  A    between atoms: _304  and  _305
REMARK  111  A    between atoms: _308  and  _310
REMARK  112  A    between atoms: _310  and  _311
REMARK  113  A    between atoms: _310  and  _313
REMARK  114  A    between atoms: _316  and  _318
REMARK  115  A    between atoms: _318  and  _319
REMARK  116  A    between atoms: _318  and  _321
REMARK  117  A    between atoms: _321  and  _322
REMARK  118  A    between atoms: _325  and  _327
REMARK  119  A    between atoms: _327  and  _328
REMARK  120  A    between atoms: _330  and  _332
REMARK  121  A    between atoms: _332  and  _333
REMARK  122  A    between atoms: _332  and  _335
REMARK  123  A    between atoms: _335  and  _336
REMARK  124  A    between atoms: _338  and  _340
REMARK  125  A    between atoms: _340  and  _341
REMARK  126  A    between atoms: _340  and  _343
REMARK  127  A    between atoms: _343  and  _344
REMARK  128  A    between atoms: _347  and  _349
REMARK  129  A    between atoms: _349  and  _350
REMARK  130  A    between atoms: _349  and  _352
REMARK  131  A    between atoms: _352  and  _353
REMARK  132  A    between atoms: _356  and  _358
REMARK  133  A    between atoms: _358  and  _359
REMARK  134  A    between atoms: _358  and  _361
REMARK  135  A    between atoms: _361  and  _362
REMARK  136  A    between atoms: _366  and  _367
REMARK  137  A    between atoms: _373  and  _374
REMARK  138  A    between atoms: _379  and  _381
REMARK  139  A    between atoms: _381  and  _382
REMARK  140  A    between atoms: _381  and  _384
REMARK  141  A    between atoms: _384  and  _385
REMARK  142  A    between atoms: _388  and  _390
REMARK  143  A    between atoms: _390  and  _391
REMARK  144  A    between atoms: _390  and  _393
REMARK  145  A    between atoms: _393  and  _394
REMARK  146  A    between atoms: _397  and  _399
REMARK  147  A    between atoms: _399  and  _400
REMARK  148  A    between atoms: _399  and  _402
REMARK  149  A    between atoms: _404  and  _406
REMARK  150  A    between atoms: _406  and  _407
REMARK  151  A    between atoms: _406  and  _409
REMARK  152  A    between atoms: _412  and  _414
REMARK  153  A    between atoms: _414  and  _415
REMARK  154  A    between atoms: _414  and  _417
REMARK  155  A    between atoms: _417  and  _418
REMARK  156  A    between atoms: _428  and  _430
REMARK  157  A    between atoms: _430  and  _431
REMARK  158  A    between atoms: _430  and  _433
REMARK  159  A    between atoms: _433  and  _434
REMARK  160  A    between atoms: _439  and  _441
REMARK  161  A    between atoms: _441  and  _442
REMARK  162  A    between atoms: _441  and  _444
REMARK  163  A    between atoms: _444  and  _445
REMARK  164  A    between atoms: _445  and  _446
REMARK  165  A    between atoms: _446  and  _447
REMARK                            x       y       z     vdW  Elec       q    Type
REMARK                         _______ _______ _______ _____ _____    ______ ____
ROOT
ATOM      1  CG  TYR A   1       2.051  -6.891  11.781  0.00  0.00    -0.020 A 
ATOM      2  CD2 TYR A   1       1.612  -6.922  13.097  0.00  0.00    -0.001 A 
ATOM      3  CE2 TYR A   1       0.776  -5.944  13.589  0.00  0.00    +0.036 A 
ATOM      4  CZ  TYR A   1       0.291  -4.962  12.746  0.00  0.00    +0.134 A 
ATOM      5  CE1 TYR A   1       0.703  -4.909  11.435  0.00  0.00    +0.036 A 
ATOM      6  CD1 TYR A   1       1.568  -5.871  10.961  0.00  0.00    -0.001 A 
ENDROOT
BRANCH   4   7
ATOM      7  OH  TYR A   1      -0.537  -3.983  13.213  0.00  0.00    -0.506 OA
ATOM      8  HH  TYR A   1      -0.745  -4.155  14.165  0.00  0.00    +0.292 HD
ENDBRANCH   4   7
BRANCH   1   9
ATOM      9  CB  TYR A   1       2.994  -7.971  11.250  0.00  0.00    +0.051 C 
BRANCH   9  10
ATOM     10  CA  TYR A   1       4.456  -7.657  11.517  0.00  0.00    +0.137 C 
BRANCH  10  11
ATOM     11  N   TYR A   1       4.849  -6.488  10.768  0.00  0.00    -0.239 NA
ATOM     12  H   TYR A   1       4.894  -6.539   9.730  0.00  0.00    +0.142 HD
ENDBRANCH  10  11
BRANCH  10  13
ATOM     13  C   TYR A   1       5.306  -8.881  11.199  0.00  0.00    +0.224 C 
ATOM     14  O   TYR A   1       4.936 -10.005  11.524  0.00  0.00    -0.287 OA
ENDBRANCH  10  13
ENDBRANCH   9  10
ENDBRANCH   1   9
TORSDOF 5
REMARK  Name = ../refined-set-2016/3oyq/3oyq_pocket.pdb
REMARK  165 active torsions:
REMARK  status: ('A' for Active; 'I' for Inactive)
REMARK    1  A    between atoms: _1  and  _3
REMARK    2  A    between atoms: _3  and  _4
REMARK    3  A    between atoms: _3  and  _6
REMARK    4  A    between atoms: _6  and  _7
REMARK    5  A    between atoms: _17  and  _19
REMARK    6  A    between atoms: _19  and  _20
REMARK    7  A    between atoms: _19  and  _22
REMARK    8  A    between atoms: _22  and  _23
REMARK    9  A    between atoms: _28  and  _29
REMARK   10  A    between atoms: _31  and  _33
REMARK   11  A    between atoms: _33  and  _34
REMARK   12  A    between atoms: _33  and  _36
REMARK   13  A    between atoms: _36  and  _37
REMARK   14  A    between atoms: _43  and  _45
REMARK   15  A    between atoms: _45  and  _46
REMARK   16  A    between atoms: _45  and  _48
REMARK   17  A    between atoms: _48  and  _49
REMARK   18  A    between atoms: _52  and  _53
REMARK   19  A    between atoms: _58  and  _60
REMARK   20  A    between atoms: _60  and  _61
REMARK   21  A    between atoms: _60  and  _63
REMARK   22  A    between atoms: _63  and  _64
REMARK   23  A    between atoms: _69  and  _71
REMARK   24  A    between atoms: _71  and  _72
REMARK   25  A    between atoms: _71  and  _74
REMARK   26  A    between atoms: _74  and  _75
REMARK   27  A    between atoms: _80  and  _82
REMARK   28  A    between atoms: _82  and  _83
REMARK   29  A    between atoms: _86  and  _88
REMARK   30  A    between atoms: _88  and  _89
REMARK   31  A    between atoms: _88  and  _91
REMARK   32  A    between atoms: _91  and  _92
REMARK   33  A    between atoms: _97  and  _99
REMARK   34  A    between atoms: _99  and  _100
REMARK   35  A    between atoms: _99  and  _102
REMARK   36  A    between atoms: _102  and  _103
REMARK   37  A    between atoms: _106  and  _108
REMARK   38  A    between atoms: _108  and  _109
REMARK   39  A    between atoms: _108  and  _111
REMARK   40  A    between atoms: _111  and  _112
REMARK   41  A    between atoms: _112  and  _113
REMARK   42  A    between atoms: _118  and  _120
REMARK   43  A    between atoms: _120  and  _121
REMARK   44  A    between atoms: _120  and  _123
REMARK   45  A    between atoms: _123  and  _124
REMARK   46  A    between atoms: _130  and  _132
REMARK   47  A    between atoms: _143  and  _146
REMARK   48  A    between atoms: _146  and  _147
REMARK   49  A    between atoms: _155  and  _156
REMARK   50  A    between atoms: _164  and  _166
REMARK   51  A    between atoms: _166  and  _167
REMARK   52  A    between atoms: _166  and  _169
REMARK   53  A    between atoms: _169  and  _170
REMARK   54  A    between atoms: _170  and  _171
REMARK   55  A    between atoms: _174  and  _176
REMARK   56  A    between atoms: _176  and  _177
REMARK   57  A    between atoms: _176  and  _179
REMARK   58  A    between atoms: _179  and  _180
REMARK   59  A    between atoms: _185  and  _187
REMARK   60  A    between atoms: _187  and  _188
REMARK   61  A    between atoms: _187  and  _190
REMARK   62  A    between atoms: _190  and  _191
REMARK   63  A    between atoms: _191  and  _192
REMARK   64  A    between atoms: _195  and  _197
REMARK   65  A    between atoms: _197  and  _198
REMARK   66  A    between atoms: _197  and  _200
REMARK   67  A    between atoms: _200  and  _201
REMARK   68  A    between atoms: _204  and  _206
REMARK   69  A    between atoms: _206  and  _207
REMARK   70  A    between atoms: _206  and  _209
REMARK   71  A    between atoms: _209  and  _210
REMARK   72  A    between atoms: _211  and  ZN_456
REMARK   73  A    between atoms: _215  and  _217
REMARK   74  A    between atoms: _217  and  _218
REMARK   75  A    between atoms: _217  and  _220
REMARK   76  A    between atoms: _220  and  _221
REMARK   77  A    between atoms: _224  and  _226
REMARK   78  A    between atoms: _226  and  _227
REMARK   79  A    between atoms: _226  and  _229
REMARK   80  A    between atoms: _232  and  _234
REMARK   81  A    between atoms: _234  and  _235
REMARK   82  A    between atoms: _234  and  _237
REMARK   83  A    between atoms: _237  and  _238
REMARK   84  A    between atoms: _243  and  _245
REMARK   85  A    between atoms: _245  and  _246
REMARK   86  A    between atoms: _245  and  _248
REMARK   87  A    between atoms: _248  and  _249
REMARK   88  A    between atoms: _255  and  _257
REMARK   89  A    between atoms: _257  and  _258
REMARK   90  A    between atoms: _260  and  _262
REMARK   91  A    between atoms: _262  and  _263
REMARK   92  A    between atoms: _262  and  _265
REMARK   93  A    between atoms: _265  and  _266
REMARK   94  A    between atoms: _266  and  _267
REMARK   95  A    between atoms: _267  and  _268
REMARK   96  A    between atoms: _268  and  _269
REMARK   97  A    between atoms: _273  and  _275
REMARK   98  A    between atoms: _275  and  _276
REMARK   99  A    between atoms: _275  and  _278
REMARK  100  A    between atoms: _281  and  _283
REMARK  101  A    between atoms: _283  and  _284
REMARK  102  A    between atoms: _283  and  _286
REMARK  103  A    between atoms: _286  and  _287
REMARK  104  A    between atoms: _287  and  _288
REMARK  105  A    between atoms: _293  and  _295
REMARK  106  A    between atoms: _295  and  _296
REMARK  107  A    between atoms: _295  and  _298
REMARK  108  A    between atoms: _298  and  _299
REMARK  109  A    between atoms: _302  and  _304
REMARK  110  A    between atoms: _304  and  _305
REMARK  111  A    between atoms: _308  and  _310
REMARK  112  A    between atoms: _310  and  _311
REMARK  113  A    between atoms: _310  and  _313
REMARK  114  A    between atoms: _316  and  _318
REMARK  115  A    between atoms: _318  and  _319
REMARK  116  A    between atoms: _318  and  _321
REMARK  117  A    between atoms: _321  and  _322
REMARK  118  A    between atoms: _325  and  _327
REMARK  119  A    between atoms: _327  and  _328
REMARK  120  A    between atoms: _330  and  _332
REMARK  121  A    between atoms: _332  and  _333
REMARK  122  A    between atoms: _332  and  _335
REMARK  123  A    between atoms: _335  and  _336
REMARK  124  A    between atoms: _338  and  _340
REMARK  125  A    between atoms: _340  and  _341
REMARK  126  A    between atoms: _340  and  _343
REMARK  127  A    between atoms: _343  and  _344
REMARK  128  A    between atoms: _347  and  _349
REMARK  129  A    between atoms: _349  and  _350
REMARK  130  A    between atoms: _349  and  _352
REMARK  131  A    between atoms: _352  and  _353
REMARK  132  A    between atoms: _356  and  _358
REMARK  133  A    between atoms: _358  and  _359
REMARK  134  A    between atoms: _358  and  _361
REMARK  135  A    between atoms: _361  and  _362
REMARK  136  A    between atoms: _366  and  _367
REMARK  137  A    between atoms: _373  and  _374
REMARK  138  A    between atoms: _379  and  _381
REMARK  139  A    between atoms: _381  and  _382
REMARK  140  A    between atoms: _381  and  _384
REMARK  141  A    between atoms: _384  and  _385
REMARK  142  A    between atoms: _388  and  _390
REMARK  143  A    between atoms: _390  and  _391
REMARK  144  A    between atoms: _390  and  _393
REMARK  145  A    between atoms: _393  and  _394
REMARK  146  A    between atoms: _397  and  _399
REMARK  147  A    between atoms: _399  and  _400
REMARK  148  A    between atoms: _399  and  _402
REMARK  149  A    between atoms: _404  and  _406
REMARK  150  A    between atoms: _406  and  _407
REMARK  151  A    between atoms: _406  and  _409
REMARK  152  A    between atoms: _412  and  _414
REMARK  153  A    between atoms: _414  and  _415
REMARK  154  A    between atoms: _414  and  _417
REMARK  155  A    between atoms: _417  and  _418
REMARK  156  A    between atoms: _428  and  _430
REMARK  157  A    between atoms: _430  and  _431
REMARK  158  A    between atoms: _430  and  _433
REMARK  159  A    between atoms: _433  and  _434
REMARK  160  A    between atoms: _439  and  _441
REMARK  161  A    between atoms: _441  and  _442
REMARK  162  A    between atoms: _441  and  _444
REMARK  163  A    between atoms: _444  and  _445
REMARK  164  A    between atoms: _445  and  _446
REMARK  165  A    between atoms: _446  and  _447
REMARK                            x       y       z     vdW  Elec       q    Type
REMARK                         _______ _______ _______ _____ _____    ______ ____
ROOT
ATOM      1  CB  PHE A   1       7.395   3.302  19.096  0.00  0.00    +0.051 C 
ENDROOT
BRANCH   1   2
ATOM      2  CG  PHE A   1       7.302   3.702  17.663  0.00  0.00    -0.020 A 
ATOM      3  CD2 PHE A   1       6.953   4.986  17.301  0.00  0.00    -0.004 A 
ATOM      4  CE2 PHE A   1       6.915   5.341  15.952  0.00  0.00    -0.000 A 
ATOM      5  CZ  PHE A   1       7.268   4.458  14.982  0.00  0.00    -0.000 A 
ATOM      6  CE1 PHE A   1       7.648   3.179  15.327  0.00  0.00    -0.000 A 
ATOM      7  CD1 PHE A   1       7.652   2.815  16.662  0.00  0.00    -0.004 A 
ENDBRANCH   1   2
BRANCH   1   8
ATOM      8  CA  PHE A   1       8.708   3.762  19.755  0.00  0.00    +0.137 C 
BRANCH   8   9
ATOM      9  N   PHE A   1       9.839   3.220  19.006  0.00  0.00    -0.239 NA
ATOM     10  H   PHE A   1      10.042   2.202  19.075  0.00  0.00    +0.142 HD
ENDBRANCH   8   9
BRANCH   8  11
ATOM     11  C   PHE A   1       8.788   3.283  21.188  0.00  0.00    +0.224 C 
ATOM     12  O   PHE A   1       8.173   2.285  21.546  0.00  0.00    -0.287 OA
ENDBRANCH   8  11
ENDBRANCH   1   8
TORSDOF 4
REMARK  Name = ../refined-set-2016/3oyq/3oyq_pocket.pdb
REMARK  165 active torsions:
REMARK  status: ('A' for Active; 'I' for Inactive)
REMARK    1  A    between atoms: _1  and  _3
REMARK    2  A    between atoms: _3  and  _4
REMARK    3  A    between atoms: _3  and  _6
REMARK    4  A    between atoms: _6  and  _7
REMARK    5  A    between atoms: _17  and  _19
REMARK    6  A    between atoms: _19  and  _20
REMARK    7  A    between atoms: _19  and  _22
REMARK    8  A    between atoms: _22  and  _23
REMARK    9  A    between atoms: _28  and  _29
REMARK   10  A    between atoms: _31  and  _33
REMARK   11  A    between atoms: _33  and  _34
REMARK   12  A    between atoms: _33  and  _36
REMARK   13  A    between atoms: _36  and  _37
REMARK   14  A    between atoms: _43  and  _45
REMARK   15  A    between atoms: _45  and  _46
REMARK   16  A    between atoms: _45  and  _48
REMARK   17  A    between atoms: _48  and  _49
REMARK   18  A    between atoms: _52  and  _53
REMARK   19  A    between atoms: _58  and  _60
REMARK   20  A    between atoms: _60  and  _61
REMARK   21  A    between atoms: _60  and  _63
REMARK   22  A    between atoms: _63  and  _64
REMARK   23  A    between atoms: _69  and  _71
REMARK   24  A    between atoms: _71  and  _72
REMARK   25  A    between atoms: _71  and  _74
REMARK   26  A    between atoms: _74  and  _75
REMARK   27  A    between atoms: _80  and  _82
REMARK   28  A    between atoms: _82  and  _83
REMARK   29  A    between atoms: _86  and  _88
REMARK   30  A    between atoms: _88  and  _89
REMARK   31  A    between atoms: _88  and  _91
REMARK   32  A    between atoms: _91  and  _92
REMARK   33  A    between atoms: _97  and  _99
REMARK   34  A    between atoms: _99  and  _100
REMARK   35  A    between atoms: _99  and  _102
REMARK   36  A    between atoms: _102  and  _103
REMARK   37  A    between atoms: _106  and  _108
REMARK   38  A    between atoms: _108  and  _109
REMARK   39  A    between atoms: _108  and  _111
REMARK   40  A    between atoms: _111  and  _112
REMARK   41  A    between atoms: _112  and  _113
REMARK   42  A    between atoms: _118  and  _120
REMARK   43  A    between atoms: _120  and  _121
REMARK   44  A    between atoms: _120  and  _123
REMARK   45  A    between atoms: _123  and  _124
REMARK   46  A    between atoms: _130  and  _132
REMARK   47  A    between atoms: _143  and  _146
REMARK   48  A    between atoms: _146  and  _147
REMARK   49  A    between atoms: _155  and  _156
REMARK   50  A    between atoms: _164  and  _166
REMARK   51  A    between atoms: _166  and  _167
REMARK   52  A    between atoms: _166  and  _169
REMARK   53  A    between atoms: _169  and  _170
REMARK   54  A    between atoms: _170  and  _171
REMARK   55  A    between atoms: _174  and  _176
REMARK   56  A    between atoms: _176  and  _177
REMARK   57  A    between atoms: _176  and  _179
REMARK   58  A    between atoms: _179  and  _180
REMARK   59  A    between atoms: _185  and  _187
REMARK   60  A    between atoms: _187  and  _188
REMARK   61  A    between atoms: _187  and  _190
REMARK   62  A    between atoms: _190  and  _191
REMARK   63  A    between atoms: _191  and  _192
REMARK   64  A    between atoms: _195  and  _197
REMARK   65  A    between atoms: _197  and  _198
REMARK   66  A    between atoms: _197  and  _200
REMARK   67  A    between atoms: _200  and  _201
REMARK   68  A    between atoms: _204  and  _206
REMARK   69  A    between atoms: _206  and  _207
REMARK   70  A    between atoms: _206  and  _209
REMARK   71  A    between atoms: _209  and  _210
REMARK   72  A    between atoms: _211  and  ZN_456
REMARK   73  A    between atoms: _215  and  _217
REMARK   74  A    between atoms: _217  and  _218
REMARK   75  A    between atoms: _217  and  _220
REMARK   76  A    between atoms: _220  and  _221
REMARK   77  A    between atoms: _224  and  _226
REMARK   78  A    between atoms: _226  and  _227
REMARK   79  A    between atoms: _226  and  _229
REMARK   80  A    between atoms: _232  and  _234
REMARK   81  A    between atoms: _234  and  _235
REMARK   82  A    between atoms: _234  and  _237
REMARK   83  A    between atoms: _237  and  _238
REMARK   84  A    between atoms: _243  and  _245
REMARK   85  A    between atoms: _245  and  _246
REMARK   86  A    between atoms: _245  and  _248
REMARK   87  A    between atoms: _248  and  _249
REMARK   88  A    between atoms: _255  and  _257
REMARK   89  A    between atoms: _257  and  _258
REMARK   90  A    between atoms: _260  and  _262
REMARK   91  A    between atoms: _262  and  _263
REMARK   92  A    between atoms: _262  and  _265
REMARK   93  A    between atoms: _265  and  _266
REMARK   94  A    between atoms: _266  and  _267
REMARK   95  A    between atoms: _267  and  _268
REMARK   96  A    between atoms: _268  and  _269
REMARK   97  A    between atoms: _273  and  _275
REMARK   98  A    between atoms: _275  and  _276
REMARK   99  A    between atoms: _275  and  _278
REMARK  100  A    between atoms: _281  and  _283
REMARK  101  A    between atoms: _283  and  _284
REMARK  102  A    between atoms: _283  and  _286
REMARK  103  A    between atoms: _286  and  _287
REMARK  104  A    between atoms: _287  and  _288
REMARK  105  A    between atoms: _293  and  _295
REMARK  106  A    between atoms: _295  and  _296
REMARK  107  A    between atoms: _295  and  _298
REMARK  108  A    between atoms: _298  and  _299
REMARK  109  A    between atoms: _302  and  _304
REMARK  110  A    between atoms: _304  and  _305
REMARK  111  A    between atoms: _308  and  _310
REMARK  112  A    between atoms: _310  and  _311
REMARK  113  A    between atoms: _310  and  _313
REMARK  114  A    between atoms: _316  and  _318
REMARK  115  A    between atoms: _318  and  _319
REMARK  116  A    between atoms: _318  and  _321
REMARK  117  A    between atoms: _321  and  _322
REMARK  118  A    between atoms: _325  and  _327
REMARK  119  A    between atoms: _327  and  _328
REMARK  120  A    between atoms: _330  and  _332
REMARK  121  A    between atoms: _332  and  _333
REMARK  122  A    between atoms: _332  and  _335
REMARK  123  A    between atoms: _335  and  _336
REMARK  124  A    between atoms: _338  and  _340
REMARK  125  A    between atoms: _340  and  _341
REMARK  126  A    between atoms: _340  and  _343
REMARK  127  A    between atoms: _343  and  _344
REMARK  128  A    between atoms: _347  and  _349
REMARK  129  A    between atoms: _349  and  _350
REMARK  130  A    between atoms: _349  and  _352
REMARK  131  A    between atoms: _352  and  _353
REMARK  132  A    between atoms: _356  and  _358
REMARK  133  A    between atoms: _358  and  _359
REMARK  134  A    between atoms: _358  and  _361
REMARK  135  A    between atoms: _361  and  _362
REMARK  136  A    between atoms: _366  and  _367
REMARK  137  A    between atoms: _373  and  _374
REMARK  138  A    between atoms: _379  and  _381
REMARK  139  A    between atoms: _381  and  _382
REMARK  140  A    between atoms: _381  and  _384
REMARK  141  A    between atoms: _384  and  _385
REMARK  142  A    between atoms: _388  and  _390
REMARK  143  A    between atoms: _390  and  _391
REMARK  144  A    between atoms: _390  and  _393
REMARK  145  A    between atoms: _393  and  _394
REMARK  146  A    between atoms: _397  and  _399
REMARK  147  A    between atoms: _399  and  _400
REMARK  148  A    between atoms: _399  and  _402
REMARK  149  A    between atoms: _404  and  _406
REMARK  150  A    between atoms: _406  and  _407
REMARK  151  A    between atoms: _406  and  _409
REMARK  152  A    between atoms: _412  and  _414
REMARK  153  A    between atoms: _414  and  _415
REMARK  154  A    between atoms: _414  and  _417
REMARK  155  A    between atoms: _417  and  _418
REMARK  156  A    between atoms: _428  and  _430
REMARK  157  A    between atoms: _430  and  _431
REMARK  158  A    between atoms: _430  and  _433
REMARK  159  A    between atoms: _433  and  _434
REMARK  160  A    between atoms: _439  and  _441
REMARK  161  A    between atoms: _441  and  _442
REMARK  162  A    between atoms: _441  and  _444
REMARK  163  A    between atoms: _444  and  _445
REMARK  164  A    between atoms: _445  and  _446
REMARK  165  A    between atoms: _446  and  _447
REMARK                            x       y       z     vdW  Elec       q    Type
REMARK                         _______ _______ _______ _____ _____    ______ ____
ROOT
ATOM      1  C   SER A   1      -2.309  -2.994  23.153  0.00  0.00    +0.244 C 
ATOM      2  N   PRO A   2      -2.953  -4.139  22.893  0.00  0.00    -0.273 N 
ATOM      3  CA  PRO A   2      -4.102  -4.687  23.592  0.00  0.00    +0.140 C 
ATOM      4  CB  PRO A   2      -4.612  -5.729  22.591  0.00  0.00    +0.030 C 
ATOM      5  CG  PRO A   2      -3.354  -6.280  22.035  0.00  0.00    +0.024 C 
ATOM      6  CD  PRO A   2      -2.469  -5.047  21.850  0.00  0.00    +0.094 C 
ATOM      7  O   SER A   1      -1.372  -2.620  22.471  0.00  0.00    -0.273 OA
ENDROOT
BRANCH   3   8
ATOM      8  C   PRO A   2      -3.727  -5.347  24.886  0.00  0.00    +0.227 C 
ATOM      9  O   PRO A   2      -2.536  -5.360  25.240  0.00  0.00    -0.286 OA
ENDBRANCH   3   8
BRANCH   1  10
ATOM     10  CA  SER A   1      -2.846  -2.137  24.294  0.00  0.00    +0.175 C 
BRANCH  10  11
ATOM     11  N   SER A   1      -1.805  -1.253  24.783  0.00  0.00    -0.236 NA
ATOM     12  H   SER A   1      -1.319  -0.637  24.100  0.00  0.00    +0.142 HD
ENDBRANCH  10  11
BRANCH  10  13
ATOM     13  CB  SER A   1      -3.981  -1.288  23.744  0.00  0.00    +0.163 C 
BRANCH  13  14
ATOM     14  OG  SER A   1      -4.603  -0.582  24.797  0.00  0.00    -0.380 OA
ATOM     15  H   SER A   1      -4.965  -1.226  25.456  0.00  0.00    +0.211 HD
ENDBRANCH  13  14
ENDBRANCH  10  13
ENDBRANCH   1  10
TORSDOF 5
REMARK  Name = ../refined-set-2016/3oyq/3oyq_pocket.pdb
REMARK  165 active torsions:
REMARK  status: ('A' for Active; 'I' for Inactive)
REMARK    1  A    between atoms: _1  and  _3
REMARK    2  A    between atoms: _3  and  _4
REMARK    3  A    between atoms: _3  and  _6
REMARK    4  A    between atoms: _6  and  _7
REMARK    5  A    between atoms: _17  and  _19
REMARK    6  A    between atoms: _19  and  _20
REMARK    7  A    between atoms: _19  and  _22
REMARK    8  A    between atoms: _22  and  _23
REMARK    9  A    between atoms: _28  and  _29
REMARK   10  A    between atoms: _31  and  _33
REMARK   11  A    between atoms: _33  and  _34
REMARK   12  A    between atoms: _33  and  _36
REMARK   13  A    between atoms: _36  and  _37
REMARK   14  A    between atoms: _43  and  _45
REMARK   15  A    between atoms: _45  and  _46
REMARK   16  A    between atoms: _45  and  _48
REMARK   17  A    between atoms: _48  and  _49
REMARK   18  A    between atoms: _52  and  _53
REMARK   19  A    between atoms: _58  and  _60
REMARK   20  A    between atoms: _60  and  _61
REMARK   21  A    between atoms: _60  and  _63
REMARK   22  A    between atoms: _63  and  _64
REMARK   23  A    between atoms: _69  and  _71
REMARK   24  A    between atoms: _71  and  _72
REMARK   25  A    between atoms: _71  and  _74
REMARK   26  A    between atoms: _74  and  _75
REMARK   27  A    between atoms: _80  and  _82
REMARK   28  A    between atoms: _82  and  _83
REMARK   29  A    between atoms: _86  and  _88
REMARK   30  A    between atoms: _88  and  _89
REMARK   31  A    between atoms: _88  and  _91
REMARK   32  A    between atoms: _91  and  _92
REMARK   33  A    between atoms: _97  and  _99
REMARK   34  A    between atoms: _99  and  _100
REMARK   35  A    between atoms: _99  and  _102
REMARK   36  A    between atoms: _102  and  _103
REMARK   37  A    between atoms: _106  and  _108
REMARK   38  A    between atoms: _108  and  _109
REMARK   39  A    between atoms: _108  and  _111
REMARK   40  A    between atoms: _111  and  _112
REMARK   41  A    between atoms: _112  and  _113
REMARK   42  A    between atoms: _118  and  _120
REMARK   43  A    between atoms: _120  and  _121
REMARK   44  A    between atoms: _120  and  _123
REMARK   45  A    between atoms: _123  and  _124
REMARK   46  A    between atoms: _130  and  _132
REMARK   47  A    between atoms: _143  and  _146
REMARK   48  A    between atoms: _146  and  _147
REMARK   49  A    between atoms: _155  and  _156
REMARK   50  A    between atoms: _164  and  _166
REMARK   51  A    between atoms: _166  and  _167
REMARK   52  A    between atoms: _166  and  _169
REMARK   53  A    between atoms: _169  and  _170
REMARK   54  A    between atoms: _170  and  _171
REMARK   55  A    between atoms: _174  and  _176
REMARK   56  A    between atoms: _176  and  _177
REMARK   57  A    between atoms: _176  and  _179
REMARK   58  A    between atoms: _179  and  _180
REMARK   59  A    between atoms: _185  and  _187
REMARK   60  A    between atoms: _187  and  _188
REMARK   61  A    between atoms: _187  and  _190
REMARK   62  A    between atoms: _190  and  _191
REMARK   63  A    between atoms: _191  and  _192
REMARK   64  A    between atoms: _195  and  _197
REMARK   65  A    between atoms: _197  and  _198
REMARK   66  A    between atoms: _197  and  _200
REMARK   67  A    between atoms: _200  and  _201
REMARK   68  A    between atoms: _204  and  _206
REMARK   69  A    between atoms: _206  and  _207
REMARK   70  A    between atoms: _206  and  _209
REMARK   71  A    between atoms: _209  and  _210
REMARK   72  A    between atoms: _211  and  ZN_456
REMARK   73  A    between atoms: _215  and  _217
REMARK   74  A    between atoms: _217  and  _218
REMARK   75  A    between atoms: _217  and  _220
REMARK   76  A    between atoms: _220  and  _221
REMARK   77  A    between atoms: _224  and  _226
REMARK   78  A    between atoms: _226  and  _227
REMARK   79  A    between atoms: _226  and  _229
REMARK   80  A    between atoms: _232  and  _234
REMARK   81  A    between atoms: _234  and  _235
REMARK   82  A    between atoms: _234  and  _237
REMARK   83  A    between atoms: _237  and  _238
REMARK   84  A    between atoms: _243  and  _245
REMARK   85  A    between atoms: _245  and  _246
REMARK   86  A    between atoms: _245  and  _248
REMARK   87  A    between atoms: _248  and  _249
REMARK   88  A    between atoms: _255  and  _257
REMARK   89  A    between atoms: _257  and  _258
REMARK   90  A    between atoms: _260  and  _262
REMARK   91  A    between atoms: _262  and  _263
REMARK   92  A    between atoms: _262  and  _265
REMARK   93  A    between atoms: _265  and  _266
REMARK   94  A    between atoms: _266  and  _267
REMARK   95  A    between atoms: _267  and  _268
REMARK   96  A    between atoms: _268  and  _269
REMARK   97  A    between atoms: _273  and  _275
REMARK   98  A    between atoms: _275  and  _276
REMARK   99  A    between atoms: _275  and  _278
REMARK  100  A    between atoms: _281  and  _283
REMARK  101  A    between atoms: _283  and  _284
REMARK  102  A    between atoms: _283  and  _286
REMARK  103  A    between atoms: _286  and  _287
REMARK  104  A    between atoms: _287  and  _288
REMARK  105  A    between atoms: _293  and  _295
REMARK  106  A    between atoms: _295  and  _296
REMARK  107  A    between atoms: _295  and  _298
REMARK  108  A    between atoms: _298  and  _299
REMARK  109  A    between atoms: _302  and  _304
REMARK  110  A    between atoms: _304  and  _305
REMARK  111  A    between atoms: _308  and  _310
REMARK  112  A    between atoms: _310  and  _311
REMARK  113  A    between atoms: _310  and  _313
REMARK  114  A    between atoms: _316  and  _318
REMARK  115  A    between atoms: _318  and  _319
REMARK  116  A    between atoms: _318  and  _321
REMARK  117  A    between atoms: _321  and  _322
REMARK  118  A    between atoms: _325  and  _327
REMARK  119  A    between atoms: _327  and  _328
REMARK  120  A    between atoms: _330  and  _332
REMARK  121  A    between atoms: _332  and  _333
REMARK  122  A    between atoms: _332  and  _335
REMARK  123  A    between atoms: _335  and  _336
REMARK  124  A    between atoms: _338  and  _340
REMARK  125  A    between atoms: _340  and  _341
REMARK  126  A    between atoms: _340  and  _343
REMARK  127  A    between atoms: _343  and  _344
REMARK  128  A    between atoms: _347  and  _349
REMARK  129  A    between atoms: _349  and  _350
REMARK  130  A    between atoms: _349  and  _352
REMARK  131  A    between atoms: _352  and  _353
REMARK  132  A    between atoms: _356  and  _358
REMARK  133  A    between atoms: _358  and  _359
REMARK  134  A    between atoms: _358  and  _361
REMARK  135  A    between atoms: _361  and  _362
REMARK  136  A    between atoms: _366  and  _367
REMARK  137  A    between atoms: _373  and  _374
REMARK  138  A    between atoms: _379  and  _381
REMARK  139  A    between atoms: _381  and  _382
REMARK  140  A    between atoms: _381  and  _384
REMARK  141  A    between atoms: _384  and  _385
REMARK  142  A    between atoms: _388  and  _390
REMARK  143  A    between atoms: _390  and  _391
REMARK  144  A    between atoms: _390  and  _393
REMARK  145  A    between atoms: _393  and  _394
REMARK  146  A    between atoms: _397  and  _399
REMARK  147  A    between atoms: _399  and  _400
REMARK  148  A    between atoms: _399  and  _402
REMARK  149  A    between atoms: _404  and  _406
REMARK  150  A    between atoms: _406  and  _407
REMARK  151  A    between atoms: _406  and  _409
REMARK  152  A    between atoms: _412  and  _414
REMARK  153  A    between atoms: _414  and  _415
REMARK  154  A    between atoms: _414  and  _417
REMARK  155  A    between atoms: _417  and  _418
REMARK  156  A    between atoms: _428  and  _430
REMARK  157  A    between atoms: _430  and  _431
REMARK  158  A    between atoms: _430  and  _433
REMARK  159  A    between atoms: _433  and  _434
REMARK  160  A    between atoms: _439  and  _441
REMARK  161  A    between atoms: _441  and  _442
REMARK  162  A    between atoms: _441  and  _444
REMARK  163  A    between atoms: _444  and  _445
REMARK  164  A    between atoms: _445  and  _446
REMARK  165  A    between atoms: _446  and  _447
REMARK                            x       y       z     vdW  Elec       q    Type
REMARK                         _______ _______ _______ _____ _____    ______ ____
ROOT
ATOM      1  CB  ASN A   1      -2.625   2.228   5.358  0.00  0.00    +0.110 C 
ENDROOT
BRANCH   1   2
ATOM      2  CG  ASN A   1      -3.041   1.373   6.520  0.00  0.00    +0.221 C 
ATOM      3  ND2 ASN A   1      -3.794   1.937   7.451  0.00  0.00    -0.329 N 
ATOM      4 HD21 ASN A   1      -4.101   1.384   8.277  0.00  0.00    +0.145 HD
ATOM      5 HD22 ASN A   1      -4.079   2.933   7.357  0.00  0.00    +0.145 HD
ATOM      6  OD1 ASN A   1      -2.683   0.209   6.588  0.00  0.00    -0.275 OA
ENDBRANCH   1   2
BRANCH   1   7
ATOM      7  CA  ASN A   1      -2.272   1.404   4.116  0.00  0.00    +0.142 C 
BRANCH   7   8
ATOM      8  N   ASN A   1      -3.400   0.581   3.696  0.00  0.00    -0.239 NA
ATOM      9  H   ASN A   1      -3.960   0.074   4.411  0.00  0.00    +0.142 HD
ENDBRANCH   7   8
BRANCH   7  10
ATOM     10  C   ASN A   1      -1.011   0.587   4.385  0.00  0.00    +0.225 C 
ATOM     11  O   ASN A   1      -0.046   1.128   4.925  0.00  0.00    -0.287 OA
ENDBRANCH   7  10
ENDBRANCH   1   7
TORSDOF 4
REMARK  Name = ../refined-set-2016/3oyq/3oyq_pocket.pdb
REMARK  165 active torsions:
REMARK  status: ('A' for Active; 'I' for Inactive)
REMARK    1  A    between atoms: _1  and  _3
REMARK    2  A    between atoms: _3  and  _4
REMARK    3  A    between atoms: _3  and  _6
REMARK    4  A    between atoms: _6  and  _7
REMARK    5  A    between atoms: _17  and  _19
REMARK    6  A    between atoms: _19  and  _20
REMARK    7  A    between atoms: _19  and  _22
REMARK    8  A    between atoms: _22  and  _23
REMARK    9  A    between atoms: _28  and  _29
REMARK   10  A    between atoms: _31  and  _33
REMARK   11  A    between atoms: _33  and  _34
REMARK   12  A    between atoms: _33  and  _36
REMARK   13  A    between atoms: _36  and  _37
REMARK   14  A    between atoms: _43  and  _45
REMARK   15  A    between atoms: _45  and  _46
REMARK   16  A    between atoms: _45  and  _48
REMARK   17  A    between atoms: _48  and  _49
REMARK   18  A    between atoms: _52  and  _53
REMARK   19  A    between atoms: _58  and  _60
REMARK   20  A    between atoms: _60  and  _61
REMARK   21  A    between atoms: _60  and  _63
REMARK   22  A    between atoms: _63  and  _64
REMARK   23  A    between atoms: _69  and  _71
REMARK   24  A    between atoms: _71  and  _72
REMARK   25  A    between atoms: _71  and  _74
REMARK   26  A    between atoms: _74  and  _75
REMARK   27  A    between atoms: _80  and  _82
REMARK   28  A    between atoms: _82  and  _83
REMARK   29  A    between atoms: _86  and  _88
REMARK   30  A    between atoms: _88  and  _89
REMARK   31  A    between atoms: _88  and  _91
REMARK   32  A    between atoms: _91  and  _92
REMARK   33  A    between atoms: _97  and  _99
REMARK   34  A    between atoms: _99  and  _100
REMARK   35  A    between atoms: _99  and  _102
REMARK   36  A    between atoms: _102  and  _103
REMARK   37  A    between atoms: _106  and  _108
REMARK   38  A    between atoms: _108  and  _109
REMARK   39  A    between atoms: _108  and  _111
REMARK   40  A    between atoms: _111  and  _112
REMARK   41  A    between atoms: _112  and  _113
REMARK   42  A    between atoms: _118  and  _120
REMARK   43  A    between atoms: _120  and  _121
REMARK   44  A    between atoms: _120  and  _123
REMARK   45  A    between atoms: _123  and  _124
REMARK   46  A    between atoms: _130  and  _132
REMARK   47  A    between atoms: _143  and  _146
REMARK   48  A    between atoms: _146  and  _147
REMARK   49  A    between atoms: _155  and  _156
REMARK   50  A    between atoms: _164  and  _166
REMARK   51  A    between atoms: _166  and  _167
REMARK   52  A    between atoms: _166  and  _169
REMARK   53  A    between atoms: _169  and  _170
REMARK   54  A    between atoms: _170  and  _171
REMARK   55  A    between atoms: _174  and  _176
REMARK   56  A    between atoms: _176  and  _177
REMARK   57  A    between atoms: _176  and  _179
REMARK   58  A    between atoms: _179  and  _180
REMARK   59  A    between atoms: _185  and  _187
REMARK   60  A    between atoms: _187  and  _188
REMARK   61  A    between atoms: _187  and  _190
REMARK   62  A    between atoms: _190  and  _191
REMARK   63  A    between atoms: _191  and  _192
REMARK   64  A    between atoms: _195  and  _197
REMARK   65  A    between atoms: _197  and  _198
REMARK   66  A    between atoms: _197  and  _200
REMARK   67  A    between atoms: _200  and  _201
REMARK   68  A    between atoms: _204  and  _206
REMARK   69  A    between atoms: _206  and  _207
REMARK   70  A    between atoms: _206  and  _209
REMARK   71  A    between atoms: _209  and  _210
REMARK   72  A    between atoms: _211  and  ZN_456
REMARK   73  A    between atoms: _215  and  _217
REMARK   74  A    between atoms: _217  and  _218
REMARK   75  A    between atoms: _217  and  _220
REMARK   76  A    between atoms: _220  and  _221
REMARK   77  A    between atoms: _224  and  _226
REMARK   78  A    between atoms: _226  and  _227
REMARK   79  A    between atoms: _226  and  _229
REMARK   80  A    between atoms: _232  and  _234
REMARK   81  A    between atoms: _234  and  _235
REMARK   82  A    between atoms: _234  and  _237
REMARK   83  A    between atoms: _237  and  _238
REMARK   84  A    between atoms: _243  and  _245
REMARK   85  A    between atoms: _245  and  _246
REMARK   86  A    between atoms: _245  and  _248
REMARK   87  A    between atoms: _248  and  _249
REMARK   88  A    between atoms: _255  and  _257
REMARK   89  A    between atoms: _257  and  _258
REMARK   90  A    between atoms: _260  and  _262
REMARK   91  A    between atoms: _262  and  _263
REMARK   92  A    between atoms: _262  and  _265
REMARK   93  A    between atoms: _265  and  _266
REMARK   94  A    between atoms: _266  and  _267
REMARK   95  A    between atoms: _267  and  _268
REMARK   96  A    between atoms: _268  and  _269
REMARK   97  A    between atoms: _273  and  _275
REMARK   98  A    between atoms: _275  and  _276
REMARK   99  A    between atoms: _275  and  _278
REMARK  100  A    between atoms: _281  and  _283
REMARK  101  A    between atoms: _283  and  _284
REMARK  102  A    between atoms: _283  and  _286
REMARK  103  A    between atoms: _286  and  _287
REMARK  104  A    between atoms: _287  and  _288
REMARK  105  A    between atoms: _293  and  _295
REMARK  106  A    between atoms: _295  and  _296
REMARK  107  A    between atoms: _295  and  _298
REMARK  108  A    between atoms: _298  and  _299
REMARK  109  A    between atoms: _302  and  _304
REMARK  110  A    between atoms: _304  and  _305
REMARK  111  A    between atoms: _308  and  _310
REMARK  112  A    between atoms: _310  and  _311
REMARK  113  A    between atoms: _310  and  _313
REMARK  114  A    between atoms: _316  and  _318
REMARK  115  A    between atoms: _318  and  _319
REMARK  116  A    between atoms: _318  and  _321
REMARK  117  A    between atoms: _321  and  _322
REMARK  118  A    between atoms: _325  and  _327
REMARK  119  A    between atoms: _327  and  _328
REMARK  120  A    between atoms: _330  and  _332
REMARK  121  A    between atoms: _332  and  _333
REMARK  122  A    between atoms: _332  and  _335
REMARK  123  A    between atoms: _335  and  _336
REMARK  124  A    between atoms: _338  and  _340
REMARK  125  A    between atoms: _340  and  _341
REMARK  126  A    between atoms: _340  and  _343
REMARK  127  A    between atoms: _343  and  _344
REMARK  128  A    between atoms: _347  and  _349
REMARK  129  A    between atoms: _349  and  _350
REMARK  130  A    between atoms: _349  and  _352
REMARK  131  A    between atoms: _352  and  _353
REMARK  132  A    between atoms: _356  and  _358
REMARK  133  A    between atoms: _358  and  _359
REMARK  134  A    between atoms: _358  and  _361
REMARK  135  A    between atoms: _361  and  _362
REMARK  136  A    between atoms: _366  and  _367
REMARK  137  A    between atoms: _373  and  _374
REMARK  138  A    between atoms: _379  and  _381
REMARK  139  A    between atoms: _381  and  _382
REMARK  140  A    between atoms: _381  and  _384
REMARK  141  A    between atoms: _384  and  _385
REMARK  142  A    between atoms: _388  and  _390
REMARK  143  A    between atoms: _390  and  _391
REMARK  144  A    between atoms: _390  and  _393
REMARK  145  A    between atoms: _393  and  _394
REMARK  146  A    between atoms: _397  and  _399
REMARK  147  A    between atoms: _399  and  _400
REMARK  148  A    between atoms: _399  and  _402
REMARK  149  A    between atoms: _404  and  _406
REMARK  150  A    between atoms: _406  and  _407
REMARK  151  A    between atoms: _406  and  _409
REMARK  152  A    between atoms: _412  and  _414
REMARK  153  A    between atoms: _414  and  _415
REMARK  154  A    between atoms: _414  and  _417
REMARK  155  A    between atoms: _417  and  _418
REMARK  156  A    between atoms: _428  and  _430
REMARK  157  A    between atoms: _430  and  _431
REMARK  158  A    between atoms: _430  and  _433
REMARK  159  A    between atoms: _433  and  _434
REMARK  160  A    between atoms: _439  and  _441
REMARK  161  A    between atoms: _441  and  _442
REMARK  162  A    between atoms: _441  and  _444
REMARK  163  A    between atoms: _444  and  _445
REMARK  164  A    between atoms: _445  and  _446
REMARK  165  A    between atoms: _446  and  _447
REMARK                            x       y       z     vdW  Elec       q    Type
REMARK                         _______ _______ _______ _____ _____    ______ ____
ROOT
ATOM      1  CA  HIS A   1      -0.845  -2.668   7.704  0.00  0.00    +0.151 C 
ENDROOT
BRANCH   1   2
ATOM      2  C   HIS A   1      -2.243  -3.232   7.953  0.00  0.00    +0.239 C 
ATOM      3  O   HIS A   1      -2.397  -4.202   8.702  0.00  0.00    -0.274 OA
ATOM      4  N   ALA A   2      -3.238  -2.616   7.335  0.00  0.00    -0.298 N 
ATOM      5  H   ALA A   2      -3.021  -1.758   6.789  0.00  0.00    +0.150 HD
BRANCH   4   6
ATOM      6  CA  ALA A   2      -4.615  -3.073   7.377  0.00  0.00    +0.137 C 
ATOM      7  CB  ALA A   2      -5.240  -2.814   8.741  0.00  0.00    +0.030 C 
BRANCH   6   8
ATOM      8  C   ALA A   2      -5.356  -2.306   6.272  0.00  0.00    +0.227 C 
ATOM      9  O   ALA A   2      -4.714  -1.677   5.422  0.00  0.00    -0.286 OA
ENDBRANCH   6   8
ENDBRANCH   4   6
ENDBRANCH   1   2
BRANCH   1  10
ATOM     10  N   HIS A   1      -0.745  -1.955   6.406  0.00  0.00    -0.238 NA
ATOM     11  H   HIS A   1      -1.400  -1.171   6.210  0.00  0.00    +0.142 HD
ENDBRANCH   1  10
BRANCH   1  12
ATOM     12  CB  HIS A   1      -0.293  -1.938   8.946  0.00  0.00    +0.074 C 
BRANCH  12  13
ATOM     13  CG  HIS A   1      -0.456  -0.462   8.949  0.00  0.00    +0.082 A 
ATOM     14  ND1 HIS A   1      -1.494   0.164   9.598  0.00  0.00    -0.227 NA
ATOM     15  CE1 HIS A   1      -1.368   1.471   9.471  0.00  0.00    +0.199 A 
ATOM     16  NE2 HIS A   1      -0.265   1.715   8.786  0.00  0.00    -0.221 NA
ATOM     17  CD2 HIS A   1       0.335   0.522   8.467  0.00  0.00    +0.115 A 
ENDBRANCH  12  13
ENDBRANCH   1  12
TORSDOF 6
REMARK  Name = ../refined-set-2016/3oyq/3oyq_pocket.pdb
REMARK  165 active torsions:
REMARK  status: ('A' for Active; 'I' for Inactive)
REMARK    1  A    between atoms: _1  and  _3
REMARK    2  A    between atoms: _3  and  _4
REMARK    3  A    between atoms: _3  and  _6
REMARK    4  A    between atoms: _6  and  _7
REMARK    5  A    between atoms: _17  and  _19
REMARK    6  A    between atoms: _19  and  _20
REMARK    7  A    between atoms: _19  and  _22
REMARK    8  A    between atoms: _22  and  _23
REMARK    9  A    between atoms: _28  and  _29
REMARK   10  A    between atoms: _31  and  _33
REMARK   11  A    between atoms: _33  and  _34
REMARK   12  A    between atoms: _33  and  _36
REMARK   13  A    between atoms: _36  and  _37
REMARK   14  A    between atoms: _43  and  _45
REMARK   15  A    between atoms: _45  and  _46
REMARK   16  A    between atoms: _45  and  _48
REMARK   17  A    between atoms: _48  and  _49
REMARK   18  A    between atoms: _52  and  _53
REMARK   19  A    between atoms: _58  and  _60
REMARK   20  A    between atoms: _60  and  _61
REMARK   21  A    between atoms: _60  and  _63
REMARK   22  A    between atoms: _63  and  _64
REMARK   23  A    between atoms: _69  and  _71
REMARK   24  A    between atoms: _71  and  _72
REMARK   25  A    between atoms: _71  and  _74
REMARK   26  A    between atoms: _74  and  _75
REMARK   27  A    between atoms: _80  and  _82
REMARK   28  A    between atoms: _82  and  _83
REMARK   29  A    between atoms: _86  and  _88
REMARK   30  A    between atoms: _88  and  _89
REMARK   31  A    between atoms: _88  and  _91
REMARK   32  A    between atoms: _91  and  _92
REMARK   33  A    between atoms: _97  and  _99
REMARK   34  A    between atoms: _99  and  _100
REMARK   35  A    between atoms: _99  and  _102
REMARK   36  A    between atoms: _102  and  _103
REMARK   37  A    between atoms: _106  and  _108
REMARK   38  A    between atoms: _108  and  _109
REMARK   39  A    between atoms: _108  and  _111
REMARK   40  A    between atoms: _111  and  _112
REMARK   41  A    between atoms: _112  and  _113
REMARK   42  A    between atoms: _118  and  _120
REMARK   43  A    between atoms: _120  and  _121
REMARK   44  A    between atoms: _120  and  _123
REMARK   45  A    between atoms: _123  and  _124
REMARK   46  A    between atoms: _130  and  _132
REMARK   47  A    between atoms: _143  and  _146
REMARK   48  A    between atoms: _146  and  _147
REMARK   49  A    between atoms: _155  and  _156
REMARK   50  A    between atoms: _164  and  _166
REMARK   51  A    between atoms: _166  and  _167
REMARK   52  A    between atoms: _166  and  _169
REMARK   53  A    between atoms: _169  and  _170
REMARK   54  A    between atoms: _170  and  _171
REMARK   55  A    between atoms: _174  and  _176
REMARK   56  A    between atoms: _176  and  _177
REMARK   57  A    between atoms: _176  and  _179
REMARK   58  A    between atoms: _179  and  _180
REMARK   59  A    between atoms: _185  and  _187
REMARK   60  A    between atoms: _187  and  _188
REMARK   61  A    between atoms: _187  and  _190
REMARK   62  A    between atoms: _190  and  _191
REMARK   63  A    between atoms: _191  and  _192
REMARK   64  A    between atoms: _195  and  _197
REMARK   65  A    between atoms: _197  and  _198
REMARK   66  A    between atoms: _197  and  _200
REMARK   67  A    between atoms: _200  and  _201
REMARK   68  A    between atoms: _204  and  _206
REMARK   69  A    between atoms: _206  and  _207
REMARK   70  A    between atoms: _206  and  _209
REMARK   71  A    between atoms: _209  and  _210
REMARK   72  A    between atoms: _211  and  ZN_456
REMARK   73  A    between atoms: _215  and  _217
REMARK   74  A    between atoms: _217  and  _218
REMARK   75  A    between atoms: _217  and  _220
REMARK   76  A    between atoms: _220  and  _221
REMARK   77  A    between atoms: _224  and  _226
REMARK   78  A    between atoms: _226  and  _227
REMARK   79  A    between atoms: _226  and  _229
REMARK   80  A    between atoms: _232  and  _234
REMARK   81  A    between atoms: _234  and  _235
REMARK   82  A    between atoms: _234  and  _237
REMARK   83  A    between atoms: _237  and  _238
REMARK   84  A    between atoms: _243  and  _245
REMARK   85  A    between atoms: _245  and  _246
REMARK   86  A    between atoms: _245  and  _248
REMARK   87  A    between atoms: _248  and  _249
REMARK   88  A    between atoms: _255  and  _257
REMARK   89  A    between atoms: _257  and  _258
REMARK   90  A    between atoms: _260  and  _262
REMARK   91  A    between atoms: _262  and  _263
REMARK   92  A    between atoms: _262  and  _265
REMARK   93  A    between atoms: _265  and  _266
REMARK   94  A    between atoms: _266  and  _267
REMARK   95  A    between atoms: _267  and  _268
REMARK   96  A    between atoms: _268  and  _269
REMARK   97  A    between atoms: _273  and  _275
REMARK   98  A    between atoms: _275  and  _276
REMARK   99  A    between atoms: _275  and  _278
REMARK  100  A    between atoms: _281  and  _283
REMARK  101  A    between atoms: _283  and  _284
REMARK  102  A    between atoms: _283  and  _286
REMARK  103  A    between atoms: _286  and  _287
REMARK  104  A    between atoms: _287  and  _288
REMARK  105  A    between atoms: _293  and  _295
REMARK  106  A    between atoms: _295  and  _296
REMARK  107  A    between atoms: _295  and  _298
REMARK  108  A    between atoms: _298  and  _299
REMARK  109  A    between atoms: _302  and  _304
REMARK  110  A    between atoms: _304  and  _305
REMARK  111  A    between atoms: _308  and  _310
REMARK  112  A    between atoms: _310  and  _311
REMARK  113  A    between atoms: _310  and  _313
REMARK  114  A    between atoms: _316  and  _318
REMARK  115  A    between atoms: _318  and  _319
REMARK  116  A    between atoms: _318  and  _321
REMARK  117  A    between atoms: _321  and  _322
REMARK  118  A    between atoms: _325  and  _327
REMARK  119  A    between atoms: _327  and  _328
REMARK  120  A    between atoms: _330  and  _332
REMARK  121  A    between atoms: _332  and  _333
REMARK  122  A    between atoms: _332  and  _335
REMARK  123  A    between atoms: _335  and  _336
REMARK  124  A    between atoms: _338  and  _340
REMARK  125  A    between atoms: _340  and  _341
REMARK  126  A    between atoms: _340  and  _343
REMARK  127  A    between atoms: _343  and  _344
REMARK  128  A    between atoms: _347  and  _349
REMARK  129  A    between atoms: _349  and  _350
REMARK  130  A    between atoms: _349  and  _352
REMARK  131  A    between atoms: _352  and  _353
REMARK  132  A    between atoms: _356  and  _358
REMARK  133  A    between atoms: _358  and  _359
REMARK  134  A    between atoms: _358  and  _361
REMARK  135  A    between atoms: _361  and  _362
REMARK  136  A    between atoms: _366  and  _367
REMARK  137  A    between atoms: _373  and  _374
REMARK  138  A    between atoms: _379  and  _381
REMARK  139  A    between atoms: _381  and  _382
REMARK  140  A    between atoms: _381  and  _384
REMARK  141  A    between atoms: _384  and  _385
REMARK  142  A    between atoms: _388  and  _390
REMARK  143  A    between atoms: _390  and  _391
REMARK  144  A    between atoms: _390  and  _393
REMARK  145  A    between atoms: _393  and  _394
REMARK  146  A    between atoms: _397  and  _399
REMARK  147  A    between atoms: _399  and  _400
REMARK  148  A    between atoms: _399  and  _402
REMARK  149  A    between atoms: _404  and  _406
REMARK  150  A    between atoms: _406  and  _407
REMARK  151  A    between atoms: _406  and  _409
REMARK  152  A    between atoms: _412  and  _414
REMARK  153  A    between atoms: _414  and  _415
REMARK  154  A    between atoms: _414  and  _417
REMARK  155  A    between atoms: _417  and  _418
REMARK  156  A    between atoms: _428  and  _430
REMARK  157  A    between atoms: _430  and  _431
REMARK  158  A    between atoms: _430  and  _433
REMARK  159  A    between atoms: _433  and  _434
REMARK  160  A    between atoms: _439  and  _441
REMARK  161  A    between atoms: _441  and  _442
REMARK  162  A    between atoms: _441  and  _444
REMARK  163  A    between atoms: _444  and  _445
REMARK  164  A    between atoms: _445  and  _446
REMARK  165  A    between atoms: _446  and  _447
REMARK                            x       y       z     vdW  Elec       q    Type
REMARK                         _______ _______ _______ _____ _____    ______ ____
ROOT
ATOM      1  CB  ASN A   1      -8.590   2.828   7.092  0.00  0.00    +0.110 C 
ENDROOT
BRANCH   1   2
ATOM      2  CG  ASN A   1      -7.525   2.583   8.108  0.00  0.00    +0.221 C 
ATOM      3  OD1 ASN A   1      -7.405   1.499   8.648  0.00  0.00    -0.275 OA
ATOM      4  ND2 ASN A   1      -6.744   3.611   8.402  0.00  0.00    -0.329 N 
ATOM      5 HD21 ASN A   1      -5.996   3.508   9.117  0.00  0.00    +0.145 HD
ATOM      6 HD22 ASN A   1      -6.879   4.522   7.918  0.00  0.00    +0.145 HD
ENDBRANCH   1   2
BRANCH   1   7
ATOM      7  CA  ASN A   1      -9.302   1.548   6.658  0.00  0.00    +0.142 C 
BRANCH   7   8
ATOM      8  N   ASN A   1      -8.442   0.618   5.912  0.00  0.00    -0.239 NA
ATOM      9  H   ASN A   1      -7.872   0.977   5.120  0.00  0.00    +0.142 HD
ENDBRANCH   7   8
BRANCH   7  10
ATOM     10  C   ASN A   1     -10.502   1.954   5.801  0.00  0.00    +0.225 C 
ATOM     11  O   ASN A   1     -10.320   2.391   4.664  0.00  0.00    -0.287 OA
ENDBRANCH   7  10
ENDBRANCH   1   7
TORSDOF 4
REMARK  Name = ../refined-set-2016/3oyq/3oyq_pocket.pdb
REMARK  165 active torsions:
REMARK  status: ('A' for Active; 'I' for Inactive)
REMARK    1  A    between atoms: _1  and  _3
REMARK    2  A    between atoms: _3  and  _4
REMARK    3  A    between atoms: _3  and  _6
REMARK    4  A    between atoms: _6  and  _7
REMARK    5  A    between atoms: _17  and  _19
REMARK    6  A    between atoms: _19  and  _20
REMARK    7  A    between atoms: _19  and  _22
REMARK    8  A    between atoms: _22  and  _23
REMARK    9  A    between atoms: _28  and  _29
REMARK   10  A    between atoms: _31  and  _33
REMARK   11  A    between atoms: _33  and  _34
REMARK   12  A    between atoms: _33  and  _36
REMARK   13  A    between atoms: _36  and  _37
REMARK   14  A    between atoms: _43  and  _45
REMARK   15  A    between atoms: _45  and  _46
REMARK   16  A    between atoms: _45  and  _48
REMARK   17  A    between atoms: _48  and  _49
REMARK   18  A    between atoms: _52  and  _53
REMARK   19  A    between atoms: _58  and  _60
REMARK   20  A    between atoms: _60  and  _61
REMARK   21  A    between atoms: _60  and  _63
REMARK   22  A    between atoms: _63  and  _64
REMARK   23  A    between atoms: _69  and  _71
REMARK   24  A    between atoms: _71  and  _72
REMARK   25  A    between atoms: _71  and  _74
REMARK   26  A    between atoms: _74  and  _75
REMARK   27  A    between atoms: _80  and  _82
REMARK   28  A    between atoms: _82  and  _83
REMARK   29  A    between atoms: _86  and  _88
REMARK   30  A    between atoms: _88  and  _89
REMARK   31  A    between atoms: _88  and  _91
REMARK   32  A    between atoms: _91  and  _92
REMARK   33  A    between atoms: _97  and  _99
REMARK   34  A    between atoms: _99  and  _100
REMARK   35  A    between atoms: _99  and  _102
REMARK   36  A    between atoms: _102  and  _103
REMARK   37  A    between atoms: _106  and  _108
REMARK   38  A    between atoms: _108  and  _109
REMARK   39  A    between atoms: _108  and  _111
REMARK   40  A    between atoms: _111  and  _112
REMARK   41  A    between atoms: _112  and  _113
REMARK   42  A    between atoms: _118  and  _120
REMARK   43  A    between atoms: _120  and  _121
REMARK   44  A    between atoms: _120  and  _123
REMARK   45  A    between atoms: _123  and  _124
REMARK   46  A    between atoms: _130  and  _132
REMARK   47  A    between atoms: _143  and  _146
REMARK   48  A    between atoms: _146  and  _147
REMARK   49  A    between atoms: _155  and  _156
REMARK   50  A    between atoms: _164  and  _166
REMARK   51  A    between atoms: _166  and  _167
REMARK   52  A    between atoms: _166  and  _169
REMARK   53  A    between atoms: _169  and  _170
REMARK   54  A    between atoms: _170  and  _171
REMARK   55  A    between atoms: _174  and  _176
REMARK   56  A    between atoms: _176  and  _177
REMARK   57  A    between atoms: _176  and  _179
REMARK   58  A    between atoms: _179  and  _180
REMARK   59  A    between atoms: _185  and  _187
REMARK   60  A    between atoms: _187  and  _188
REMARK   61  A    between atoms: _187  and  _190
REMARK   62  A    between atoms: _190  and  _191
REMARK   63  A    between atoms: _191  and  _192
REMARK   64  A    between atoms: _195  and  _197
REMARK   65  A    between atoms: _197  and  _198
REMARK   66  A    between atoms: _197  and  _200
REMARK   67  A    between atoms: _200  and  _201
REMARK   68  A    between atoms: _204  and  _206
REMARK   69  A    between atoms: _206  and  _207
REMARK   70  A    between atoms: _206  and  _209
REMARK   71  A    between atoms: _209  and  _210
REMARK   72  A    between atoms: _211  and  ZN_456
REMARK   73  A    between atoms: _215  and  _217
REMARK   74  A    between atoms: _217  and  _218
REMARK   75  A    between atoms: _217  and  _220
REMARK   76  A    between atoms: _220  and  _221
REMARK   77  A    between atoms: _224  and  _226
REMARK   78  A    between atoms: _226  and  _227
REMARK   79  A    between atoms: _226  and  _229
REMARK   80  A    between atoms: _232  and  _234
REMARK   81  A    between atoms: _234  and  _235
REMARK   82  A    between atoms: _234  and  _237
REMARK   83  A    between atoms: _237  and  _238
REMARK   84  A    between atoms: _243  and  _245
REMARK   85  A    between atoms: _245  and  _246
REMARK   86  A    between atoms: _245  and  _248
REMARK   87  A    between atoms: _248  and  _249
REMARK   88  A    between atoms: _255  and  _257
REMARK   89  A    between atoms: _257  and  _258
REMARK   90  A    between atoms: _260  and  _262
REMARK   91  A    between atoms: _262  and  _263
REMARK   92  A    between atoms: _262  and  _265
REMARK   93  A    between atoms: _265  and  _266
REMARK   94  A    between atoms: _266  and  _267
REMARK   95  A    between atoms: _267  and  _268
REMARK   96  A    between atoms: _268  and  _269
REMARK   97  A    between atoms: _273  and  _275
REMARK   98  A    between atoms: _275  and  _276
REMARK   99  A    between atoms: _275  and  _278
REMARK  100  A    between atoms: _281  and  _283
REMARK  101  A    between atoms: _283  and  _284
REMARK  102  A    between atoms: _283  and  _286
REMARK  103  A    between atoms: _286  and  _287
REMARK  104  A    between atoms: _287  and  _288
REMARK  105  A    between atoms: _293  and  _295
REMARK  106  A    between atoms: _295  and  _296
REMARK  107  A    between atoms: _295  and  _298
REMARK  108  A    between atoms: _298  and  _299
REMARK  109  A    between atoms: _302  and  _304
REMARK  110  A    between atoms: _304  and  _305
REMARK  111  A    between atoms: _308  and  _310
REMARK  112  A    between atoms: _310  and  _311
REMARK  113  A    between atoms: _310  and  _313
REMARK  114  A    between atoms: _316  and  _318
REMARK  115  A    between atoms: _318  and  _319
REMARK  116  A    between atoms: _318  and  _321
REMARK  117  A    between atoms: _321  and  _322
REMARK  118  A    between atoms: _325  and  _327
REMARK  119  A    between atoms: _327  and  _328
REMARK  120  A    between atoms: _330  and  _332
REMARK  121  A    between atoms: _332  and  _333
REMARK  122  A    between atoms: _332  and  _335
REMARK  123  A    between atoms: _335  and  _336
REMARK  124  A    between atoms: _338  and  _340
REMARK  125  A    between atoms: _340  and  _341
REMARK  126  A    between atoms: _340  and  _343
REMARK  127  A    between atoms: _343  and  _344
REMARK  128  A    between atoms: _347  and  _349
REMARK  129  A    between atoms: _349  and  _350
REMARK  130  A    between atoms: _349  and  _352
REMARK  131  A    between atoms: _352  and  _353
REMARK  132  A    between atoms: _356  and  _358
REMARK  133  A    between atoms: _358  and  _359
REMARK  134  A    between atoms: _358  and  _361
REMARK  135  A    between atoms: _361  and  _362
REMARK  136  A    between atoms: _366  and  _367
REMARK  137  A    between atoms: _373  and  _374
REMARK  138  A    between atoms: _379  and  _381
REMARK  139  A    between atoms: _381  and  _382
REMARK  140  A    between atoms: _381  and  _384
REMARK  141  A    between atoms: _384  and  _385
REMARK  142  A    between atoms: _388  and  _390
REMARK  143  A    between atoms: _390  and  _391
REMARK  144  A    between atoms: _390  and  _393
REMARK  145  A    between atoms: _393  and  _394
REMARK  146  A    between atoms: _397  and  _399
REMARK  147  A    between atoms: _399  and  _400
REMARK  148  A    between atoms: _399  and  _402
REMARK  149  A    between atoms: _404  and  _406
REMARK  150  A    between atoms: _406  and  _407
REMARK  151  A    between atoms: _406  and  _409
REMARK  152  A    between atoms: _412  and  _414
REMARK  153  A    between atoms: _414  and  _415
REMARK  154  A    between atoms: _414  and  _417
REMARK  155  A    between atoms: _417  and  _418
REMARK  156  A    between atoms: _428  and  _430
REMARK  157  A    between atoms: _430  and  _431
REMARK  158  A    between atoms: _430  and  _433
REMARK  159  A    between atoms: _433  and  _434
REMARK  160  A    between atoms: _439  and  _441
REMARK  161  A    between atoms: _441  and  _442
REMARK  162  A    between atoms: _441  and  _444
REMARK  163  A    between atoms: _444  and  _445
REMARK  164  A    between atoms: _445  and  _446
REMARK  165  A    between atoms: _446  and  _447
REMARK                            x       y       z     vdW  Elec       q    Type
REMARK                         _______ _______ _______ _____ _____    ______ ____
ROOT
ATOM      1  C   UNK A   4     -10.371  -1.371  10.310  0.00  0.00    +0.000 C 
ATOM      2  C   UNK A   4     -10.430  -2.640  11.131  0.00  0.00    +0.000 C 
ATOM      3  O   UNK A   4     -11.056  -2.685  12.176  0.00  0.00    +0.000 OA
ATOM      4  N   VAL A   5      -9.745  -3.671  10.648  0.00  0.00    +0.000 N 
ATOM      5  CA  VAL A   5      -9.672  -4.967  11.330  0.00  0.00    +0.000 C 
ATOM      6  C   VAL A   5      -8.214  -5.398  11.500  0.00  0.00    +0.000 C 
ATOM      7  N   UNK A   6      -8.051  -6.368  12.395  0.00  0.00    +0.000 N 
ATOM      8  H   UNK A   6      -8.842  -6.561  13.043  0.00  0.00    +0.000 HD
ATOM      9  C   UNK A   6      -6.852  -7.181  12.539  0.00  0.00    +0.000 C 
ATOM     10  C   UNK A   6      -6.177  -6.944  13.895  0.00  0.00    +0.000 C 
ATOM     11  C   UNK A   6      -5.901  -5.502  14.179  0.00  0.00    +0.000 A 
ATOM     12  C   UNK A   6      -6.720  -4.510  14.611  0.00  0.00    +0.000 A 
ATOM     13  N   UNK A   6      -5.963  -3.352  14.670  0.00  0.00    +0.000 N 
ATOM     14 ZN   UNK A   6      -6.714  -1.549  15.272  0.00  0.00    +0.000 Zn
ATOM     15  N   UNK A   4      -7.466  -0.654  13.596  0.00  0.00    +0.000 N 
ATOM     16  C   UNK A   4      -7.971   0.561  13.429  0.00  0.00    +0.000 A 
ATOM     17  N   UNK A   4      -8.510   0.622  12.231  0.00  0.00    +0.000 NA
ATOM     18  C   UNK A   4      -8.346  -0.585  11.587  0.00  0.00    +0.000 A 
ATOM     19  C   UNK A   4      -7.700  -1.393  12.474  0.00  0.00    +0.000 A 
ATOM     20  C   UNK A   6      -4.737  -3.626  14.267  0.00  0.00    +0.000 A 
ATOM     21  N   UNK A   6      -4.674  -4.915  13.957  0.00  0.00    +0.000 NA
ATOM     22  O   VAL A   5      -7.319  -4.940  10.790  0.00  0.00    +0.000 OA
ATOM     23  H   VAL A   5      -9.239  -3.554   9.747  0.00  0.00    +0.000 HD
ATOM     24  C   UNK A   4      -8.928  -0.858  10.238  0.00  0.00    +0.000 C 
ENDROOT
BRANCH  14  25
ATOM     25  N   UNK A   6      -8.167  -2.240  16.534  0.00  0.00    +0.000 N 
ATOM     26  C   UNK A   6      -7.878  -3.170  17.421  0.00  0.00    +0.000 A 
ATOM     27  N   UNK A   6      -8.996  -3.560  18.015  0.00  0.00    +0.000 NA
ATOM     28  C   UNK A   6     -10.049  -2.878  17.464  0.00  0.00    +0.000 A 
ATOM     29  C   UNK A   6      -9.541  -2.045  16.531  0.00  0.00    +0.000 A 
BRANCH  29  30
ATOM     30  C   UNK A   6     -10.250  -1.071  15.659  0.00  0.00    +0.000 C 
BRANCH  30  31
ATOM     31  C   UNK A   6     -11.754  -1.358  15.573  0.00  0.00    +0.000 C 
BRANCH  31  32
ATOM     32  C   UNK A   6     -12.450  -0.204  14.896  0.00  0.00    +0.000 C 
ATOM     33  N   UNK A   4     -13.444   0.374  15.585  0.00  0.00    +0.000 N 
ATOM     34  H   UNK A   4     -13.763  -0.081  16.464  0.00  0.00    +0.000 HD
ATOM     35  O   UNK A   6     -12.078   0.169  13.782  0.00  0.00    +0.000 OA
BRANCH  33  36
ATOM     36  C   UNK A   4     -14.106   1.614  15.166  0.00  0.00    +0.000 C 
BRANCH  36  37
ATOM     37  C   UNK A   4     -13.491   2.751  15.954  0.00  0.00    +0.000 C 
ATOM     38  O   UNK A   4     -13.610   2.796  17.182  0.00  0.00    +0.000 OA
ATOM     39  N   VAL A   5     -12.756   3.593  15.226  0.00  0.00    +0.000 N 
ATOM     40  H   VAL A   5     -12.787   3.527  14.189  0.00  0.00    +0.000 HD
BRANCH  39  41
ATOM     41  CA  VAL A   5     -11.908   4.607  15.852  0.00  0.00    +0.000 C 
BRANCH  41  42
ATOM     42  C   VAL A   5     -12.622   5.940  15.873  0.00  0.00    +0.000 C 
ATOM     43  N   UNK A   6     -12.673   6.565  17.054  0.00  0.00    +0.000 N 
ATOM     44  H   UNK A   6     -12.191   6.136  17.869  0.00  0.00    +0.000 HD
ATOM     45  O   VAL A   5     -13.085   6.405  14.825  0.00  0.00    +0.000 OA
BRANCH  43  46
ATOM     46  C   UNK A   6     -13.389   7.842  17.242  0.00  0.00    +0.000 C 
BRANCH  46  47
ATOM     47  C   UNK A   6     -12.499   8.810  17.991  0.00  0.00    +0.000 C 
ATOM     48  O   UNK A   6     -11.693   8.418  18.828  0.00  0.00    +0.000 OA
ENDBRANCH  46  47
BRANCH  46  49
ATOM     49  C   UNK A   6     -14.659   7.638  18.105  0.00  0.00    +0.000 C 
BRANCH  49  50
ATOM     50  C   UNK A   6     -15.576   6.528  17.661  0.00  0.00    +0.000 A 
ATOM     51  N   UNK A   6     -15.261   5.210  17.881  0.00  0.00    +0.000 NA
ATOM     52  C   UNK A   6     -16.242   4.440  17.445  0.00  0.00    +0.000 A 
ATOM     53  N   UNK A   6     -17.184   5.212  16.940  0.00  0.00    +0.000 NA
ATOM     54  C   UNK A   6     -16.790   6.526  17.064  0.00  0.00    +0.000 A 
ENDBRANCH  49  50
ENDBRANCH  46  49
ENDBRANCH  43  46
ENDBRANCH  41  42
BRANCH  41  55
ATOM     55  CB  VAL A   5     -10.595   4.740  15.070  0.00  0.00    +0.000 C 
ATOM     56  CG2 VAL A   5      -9.708   5.780  15.712  0.00  0.00    +0.000 C 
ATOM     57  CG1 VAL A   5      -9.843   3.384  14.956  0.00  0.00    +0.000 C 
ENDBRANCH  41  55
ENDBRANCH  39  41
ENDBRANCH  36  37
BRANCH  36  58
ATOM     58  C   UNK A   4     -15.606   1.507  15.359  0.00  0.00    +0.000 C 
BRANCH  58  59
ATOM     59  C   UNK A   4     -16.294   0.444  14.481  0.00  0.00    +0.000 C 
ATOM     60  C   UNK A   4     -17.112  -0.497  15.330  0.00  0.00    +0.000 C 
ATOM     61  C   UNK A   4     -17.203   1.110  13.448  0.00  0.00    +0.000 C 
ENDBRANCH  58  59
ENDBRANCH  36  58
ENDBRANCH  33  36
ENDBRANCH  31  32
BRANCH  31  62
ATOM     62  N   UNK A   6     -11.994  -2.597  14.832  0.00  0.00    +0.000 N 
ATOM     63  C   LEU A   2     -12.617  -3.659  15.343  0.00  0.00    +0.000 C 
ATOM     64  O   LEU A   2     -13.005  -3.738  16.494  0.00  0.00    +0.000 OA
ATOM     65  H   UNK A   6     -11.659  -2.652  13.849  0.00  0.00    +0.000 HD
BRANCH  63  66
ATOM     66  CA  LEU A   2     -12.833  -4.786  14.354  0.00  0.00    +0.000 C 
BRANCH  66  67
ATOM     67  N   LEU A   2     -12.477  -6.050  14.971  0.00  0.00    +0.000 N 
ATOM     68  H   LEU A   2     -13.203  -6.543  15.530  0.00  0.00    +0.000 HD
ATOM     69  C   GLU A   1     -11.275  -6.618  14.865  0.00  0.00    +0.000 C 
ATOM     70  O   GLU A   1     -10.362  -6.198  14.140  0.00  0.00    +0.000 OA
BRANCH  69  71
ATOM     71  CA  GLU A   1     -11.076  -7.893  15.676  0.00  0.00    +0.000 C 
BRANCH  71  72
ATOM     72  N   GLU A   1     -10.564  -8.936  14.796  0.00  0.00    +0.000 NA
ATOM     73  H   GLU A   1      -9.901  -8.681  14.036  0.00  0.00    +0.000 HD
ENDBRANCH  71  72
BRANCH  71  74
ATOM     74  CB  GLU A   1     -10.091  -7.670  16.827  0.00  0.00    +0.000 C 
BRANCH  74  75
ATOM     75  CG  GLU A   1     -10.595  -6.695  17.893  0.00  0.00    +0.000 C 
BRANCH  75  76
ATOM     76  CD  GLU A   1      -9.670  -6.634  19.098  0.00  0.00    +0.000 C 
ATOM     77  OE2 GLU A   1      -9.597  -5.569  19.766  0.00  0.00    +0.000 OA
ATOM     78  OE1 GLU A   1      -9.023  -7.645  19.392  0.00  0.00    +0.000 OA
ENDBRANCH  75  76
ENDBRANCH  74  75
ENDBRANCH  71  74
ENDBRANCH  69  71
ENDBRANCH  66  67
BRANCH  66  79
ATOM     79  CB  LEU A   2     -14.323  -4.865  13.999  0.00  0.00    +0.000 C 
BRANCH  79  80
ATOM     80  CG  LEU A   2     -15.123  -3.604  13.628  0.00  0.00    +0.000 C 
ATOM     81  CD2 LEU A   2     -16.585  -3.991  13.365  0.00  0.00    +0.000 C 
ATOM     82  CD1 LEU A   2     -14.550  -2.951  12.429  0.00  0.00    +0.000 C 
ENDBRANCH  79  80
ENDBRANCH  66  79
ENDBRANCH  63  66
ENDBRANCH  31  62
ENDBRANCH  30  31
ENDBRANCH  29  30
ENDBRANCH  14  25
BRANCH   1  84
ATOM     83  C   UNK A   3     -11.782   0.630  10.228  0.00  0.00    +0.000 C 
ATOM     84  N   UNK A   4     -11.265  -0.390  10.909  0.00  0.00    +0.000 N 
ATOM     85  H   UNK A   4     -11.511  -0.491  11.915  0.00  0.00    +0.000 HD
ATOM     86  O   UNK A   3     -11.557   0.837   9.050  0.00  0.00    +0.000 OA
BRANCH  83  87
ATOM     87  C   UNK A   3     -12.722   1.474  11.048  0.00  0.00    +0.000 C 
BRANCH  87  90
ATOM     88  C   LEU A   2     -12.597   3.897  11.154  0.00  0.00    +0.000 C 
ATOM     89  O   LEU A   2     -12.604   3.921  12.390  0.00  0.00    +0.000 OA
ATOM     90  N   UNK A   3     -12.838   2.791  10.436  0.00  0.00    +0.000 N 
ATOM     91  H   UNK A   3     -13.110   2.874   9.435  0.00  0.00    +0.000 HD
BRANCH  88  92
ATOM     92  CA  LEU A   2     -12.369   5.162  10.364  0.00  0.00    +0.000 C 
BRANCH  92  94
ATOM     93  C   GLU A   1     -12.791   7.527  10.688  0.00  0.00    +0.000 C 
ATOM     94  N   LEU A   2     -12.658   6.311  11.216  0.00  0.00    +0.000 N 
ATOM     95  H   LEU A   2     -12.761   6.180  12.243  0.00  0.00    +0.000 HD
ATOM     96  O   GLU A   1     -12.711   7.722   9.480  0.00  0.00    +0.000 OA
BRANCH  93  97
ATOM     97  CA  GLU A   1     -13.076   8.687  11.656  0.00  0.00    +0.000 C 
BRANCH  97  98
ATOM     98  CB  GLU A   1     -11.738   9.341  12.176  0.00  0.00    +0.000 C 
ATOM     99  CG2 GLU A   1     -11.036   8.478  13.221  0.00  0.00    +0.000 C 
BRANCH  98 100
ATOM    100  CG1 GLU A   1     -10.810   9.685  11.017  0.00  0.00    +0.000 C 
ATOM    101  CD1 GLU A   1      -9.657  10.584  11.421  0.00  0.00    +0.000 C 
ENDBRANCH  98 100
ENDBRANCH  97  98
BRANCH  97 102
ATOM    102  N   GLU A   1     -13.960   8.312  12.752  0.00  0.00    +0.000 NA
ATOM    103  H   GLU A   1     -13.595   7.694  13.505  0.00  0.00    +0.000 HD
ENDBRANCH  97 102
ENDBRANCH  93  97
ENDBRANCH  92  94
BRANCH  92 104
ATOM    104  CB  LEU A   2     -10.920   5.165   9.806  0.00  0.00    +0.000 C 
BRANCH 104 105
ATOM    105  CG  LEU A   2      -9.803   5.308  10.861  0.00  0.00    +0.000 C 
BRANCH 105 106
ATOM    106  CD  LEU A   2      -9.087   4.041  11.266  0.00  0.00    +0.000 C 
ATOM    107  NE2 LEU A   2      -7.882   4.200  11.759  0.00  0.00    +0.000 N 
ATOM    108 HE21 LEU A   2      -7.348   3.376  12.102  0.00  0.00    +0.000 HD
ATOM    109 HE22 LEU A   2      -7.461   5.150  11.807  0.00  0.00    +0.000 HD
ATOM    110  OE1 LEU A   2      -9.630   2.948  11.186  0.00  0.00    +0.000 OA
ENDBRANCH 105 106
ENDBRANCH 104 105
ENDBRANCH  92 104
ENDBRANCH  88  92
ENDBRANCH  87  90
BRANCH  87 111
ATOM    111  C   UNK A   3     -14.072   0.796  11.319  0.00  0.00    +0.000 C 
BRANCH 111 112
ATOM    112  C   UNK A   3     -14.824   0.316  10.096  0.00  0.00    +0.000 A 
ATOM    113  C   UNK A   3     -15.934   1.022   9.637  0.00  0.00    +0.000 A 
ATOM    114  C   UNK A   3     -16.646   0.559   8.544  0.00  0.00    +0.000 A 
ATOM    115  C   UNK A   3     -16.239  -0.563   7.851  0.00  0.00    +0.000 A 
ATOM    116  C   UNK A   3     -15.144  -1.281   8.289  0.00  0.00    +0.000 A 
ATOM    117  C   UNK A   3     -14.433  -0.825   9.404  0.00  0.00    +0.000 A 
ENDBRANCH 111 112
ENDBRANCH  87 111
ENDBRANCH  83  87
ENDBRANCH   1  84
BRANCH   9 118
ATOM    118  C   UNK A   6      -7.279  -8.632  12.419  0.00  0.00    +0.000 C 
ATOM    119  O   UNK A   6      -8.345  -8.983  12.923  0.00  0.00    +0.000 OA
ENDBRANCH   9 118
BRANCH   5 120
ATOM    120  CB  VAL A   5     -10.390  -6.052  10.482  0.00  0.00    +0.000 C 
BRANCH 120 121
ATOM    121  CG  VAL A   5     -11.837  -5.743  10.141  0.00  0.00    +0.000 A 
ATOM    122  CD2 VAL A   5     -12.871  -6.413  10.803  0.00  0.00    +0.000 A 
ATOM    123  CE2 VAL A   5     -14.179  -6.160  10.479  0.00  0.00    +0.000 A 
ATOM    124  CZ  VAL A   5     -14.496  -5.277   9.457  0.00  0.00    +0.000 A 
ATOM    125  CE1 VAL A   5     -13.511  -4.672   8.738  0.00  0.00    +0.000 A 
ATOM    126  CD1 VAL A   5     -12.167  -4.897   9.081  0.00  0.00    +0.000 A 
ENDBRANCH 120 121
ENDBRANCH   5 120
TORSDOF 42
REMARK  Name = ../refined-set-2016/3oyq/3oyq_pocket.pdb
REMARK  165 active torsions:
REMARK  status: ('A' for Active; 'I' for Inactive)
REMARK    1  A    between atoms: _1  and  _3
REMARK    2  A    between atoms: _3  and  _4
REMARK    3  A    between atoms: _3  and  _6
REMARK    4  A    between atoms: _6  and  _7
REMARK    5  A    between atoms: _17  and  _19
REMARK    6  A    between atoms: _19  and  _20
REMARK    7  A    between atoms: _19  and  _22
REMARK    8  A    between atoms: _22  and  _23
REMARK    9  A    between atoms: _28  and  _29
REMARK   10  A    between atoms: _31  and  _33
REMARK   11  A    between atoms: _33  and  _34
REMARK   12  A    between atoms: _33  and  _36
REMARK   13  A    between atoms: _36  and  _37
REMARK   14  A    between atoms: _43  and  _45
REMARK   15  A    between atoms: _45  and  _46
REMARK   16  A    between atoms: _45  and  _48
REMARK   17  A    between atoms: _48  and  _49
REMARK   18  A    between atoms: _52  and  _53
REMARK   19  A    between atoms: _58  and  _60
REMARK   20  A    between atoms: _60  and  _61
REMARK   21  A    between atoms: _60  and  _63
REMARK   22  A    between atoms: _63  and  _64
REMARK   23  A    between atoms: _69  and  _71
REMARK   24  A    between atoms: _71  and  _72
REMARK   25  A    between atoms: _71  and  _74
REMARK   26  A    between atoms: _74  and  _75
REMARK   27  A    between atoms: _80  and  _82
REMARK   28  A    between atoms: _82  and  _83
REMARK   29  A    between atoms: _86  and  _88
REMARK   30  A    between atoms: _88  and  _89
REMARK   31  A    between atoms: _88  and  _91
REMARK   32  A    between atoms: _91  and  _92
REMARK   33  A    between atoms: _97  and  _99
REMARK   34  A    between atoms: _99  and  _100
REMARK   35  A    between atoms: _99  and  _102
REMARK   36  A    between atoms: _102  and  _103
REMARK   37  A    between atoms: _106  and  _108
REMARK   38  A    between atoms: _108  and  _109
REMARK   39  A    between atoms: _108  and  _111
REMARK   40  A    between atoms: _111  and  _112
REMARK   41  A    between atoms: _112  and  _113
REMARK   42  A    between atoms: _118  and  _120
REMARK   43  A    between atoms: _120  and  _121
REMARK   44  A    between atoms: _120  and  _123
REMARK   45  A    between atoms: _123  and  _124
REMARK   46  A    between atoms: _130  and  _132
REMARK   47  A    between atoms: _143  and  _146
REMARK   48  A    between atoms: _146  and  _147
REMARK   49  A    between atoms: _155  and  _156
REMARK   50  A    between atoms: _164  and  _166
REMARK   51  A    between atoms: _166  and  _167
REMARK   52  A    between atoms: _166  and  _169
REMARK   53  A    between atoms: _169  and  _170
REMARK   54  A    between atoms: _170  and  _171
REMARK   55  A    between atoms: _174  and  _176
REMARK   56  A    between atoms: _176  and  _177
REMARK   57  A    between atoms: _176  and  _179
REMARK   58  A    between atoms: _179  and  _180
REMARK   59  A    between atoms: _185  and  _187
REMARK   60  A    between atoms: _187  and  _188
REMARK   61  A    between atoms: _187  and  _190
REMARK   62  A    between atoms: _190  and  _191
REMARK   63  A    between atoms: _191  and  _192
REMARK   64  A    between atoms: _195  and  _197
REMARK   65  A    between atoms: _197  and  _198
REMARK   66  A    between atoms: _197  and  _200
REMARK   67  A    between atoms: _200  and  _201
REMARK   68  A    between atoms: _204  and  _206
REMARK   69  A    between atoms: _206  and  _207
REMARK   70  A    between atoms: _206  and  _209
REMARK   71  A    between atoms: _209  and  _210
REMARK   72  A    between atoms: _211  and  ZN_456
REMARK   73  A    between atoms: _215  and  _217
REMARK   74  A    between atoms: _217  and  _218
REMARK   75  A    between atoms: _217  and  _220
REMARK   76  A    between atoms: _220  and  _221
REMARK   77  A    between atoms: _224  and  _226
REMARK   78  A    between atoms: _226  and  _227
REMARK   79  A    between atoms: _226  and  _229
REMARK   80  A    between atoms: _232  and  _234
REMARK   81  A    between atoms: _234  and  _235
REMARK   82  A    between atoms: _234  and  _237
REMARK   83  A    between atoms: _237  and  _238
REMARK   84  A    between atoms: _243  and  _245
REMARK   85  A    between atoms: _245  and  _246
REMARK   86  A    between atoms: _245  and  _248
REMARK   87  A    between atoms: _248  and  _249
REMARK   88  A    between atoms: _255  and  _257
REMARK   89  A    between atoms: _257  and  _258
REMARK   90  A    between atoms: _260  and  _262
REMARK   91  A    between atoms: _262  and  _263
REMARK   92  A    between atoms: _262  and  _265
REMARK   93  A    between atoms: _265  and  _266
REMARK   94  A    between atoms: _266  and  _267
REMARK   95  A    between atoms: _267  and  _268
REMARK   96  A    between atoms: _268  and  _269
REMARK   97  A    between atoms: _273  and  _275
REMARK   98  A    between atoms: _275  and  _276
REMARK   99  A    between atoms: _275  and  _278
REMARK  100  A    between atoms: _281  and  _283
REMARK  101  A    between atoms: _283  and  _284
REMARK  102  A    between atoms: _283  and  _286
REMARK  103  A    between atoms: _286  and  _287
REMARK  104  A    between atoms: _287  and  _288
REMARK  105  A    between atoms: _293  and  _295
REMARK  106  A    between atoms: _295  and  _296
REMARK  107  A    between atoms: _295  and  _298
REMARK  108  A    between atoms: _298  and  _299
REMARK  109  A    between atoms: _302  and  _304
REMARK  110  A    between atoms: _304  and  _305
REMARK  111  A    between atoms: _308  and  _310
REMARK  112  A    between atoms: _310  and  _311
REMARK  113  A    between atoms: _310  and  _313
REMARK  114  A    between atoms: _316  and  _318
REMARK  115  A    between atoms: _318  and  _319
REMARK  116  A    between atoms: _318  and  _321
REMARK  117  A    between atoms: _321  and  _322
REMARK  118  A    between atoms: _325  and  _327
REMARK  119  A    between atoms: _327  and  _328
REMARK  120  A    between atoms: _330  and  _332
REMARK  121  A    between atoms: _332  and  _333
REMARK  122  A    between atoms: _332  and  _335
REMARK  123  A    between atoms: _335  and  _336
REMARK  124  A    between atoms: _338  and  _340
REMARK  125  A    between atoms: _340  and  _341
REMARK  126  A    between atoms: _340  and  _343
REMARK  127  A    between atoms: _343  and  _344
REMARK  128  A    between atoms: _347  and  _349
REMARK  129  A    between atoms: _349  and  _350
REMARK  130  A    between atoms: _349  and  _352
REMARK  131  A    between atoms: _352  and  _353
REMARK  132  A    between atoms: _356  and  _358
REMARK  133  A    between atoms: _358  and  _359
REMARK  134  A    between atoms: _358  and  _361
REMARK  135  A    between atoms: _361  and  _362
REMARK  136  A    between atoms: _366  and  _367
REMARK  137  A    between atoms: _373  and  _374
REMARK  138  A    between atoms: _379  and  _381
REMARK  139  A    between atoms: _381  and  _382
REMARK  140  A    between atoms: _381  and  _384
REMARK  141  A    between atoms: _384  and  _385
REMARK  142  A    between atoms: _388  and  _390
REMARK  143  A    between atoms: _390  and  _391
REMARK  144  A    between atoms: _390  and  _393
REMARK  145  A    between atoms: _393  and  _394
REMARK  146  A    between atoms: _397  and  _399
REMARK  147  A    between atoms: _399  and  _400
REMARK  148  A    between atoms: _399  and  _402
REMARK  149  A    between atoms: _404  and  _406
REMARK  150  A    between atoms: _406  and  _407
REMARK  151  A    between atoms: _406  and  _409
REMARK  152  A    between atoms: _412  and  _414
REMARK  153  A    between atoms: _414  and  _415
REMARK  154  A    between atoms: _414  and  _417
REMARK  155  A    between atoms: _417  and  _418
REMARK  156  A    between atoms: _428  and  _430
REMARK  157  A    between atoms: _430  and  _431
REMARK  158  A    between atoms: _430  and  _433
REMARK  159  A    between atoms: _433  and  _434
REMARK  160  A    between atoms: _439  and  _441
REMARK  161  A    between atoms: _441  and  _442
REMARK  162  A    between atoms: _441  and  _444
REMARK  163  A    between atoms: _444  and  _445
REMARK  164  A    between atoms: _445  and  _446
REMARK  165  A    between atoms: _446  and  _447
REMARK                            x       y       z     vdW  Elec       q    Type
REMARK                         _______ _______ _______ _____ _____    ______ ____
ROOT
ATOM      1  C   GLU A   1      -5.852  -8.396  21.006  0.00  0.00    +0.238 C 
ATOM      2  O   GLU A   1      -5.075  -8.970  21.767  0.00  0.00    -0.274 OA
ATOM      3  N   HIS A   2      -7.026  -7.966  21.426  0.00  0.00    -0.298 N 
ATOM      4  H   HIS A   2      -7.603  -7.354  20.814  0.00  0.00    +0.150 HD
ENDROOT
BRANCH   1   5
ATOM      5  CA  GLU A   1      -5.533  -8.232  19.518  0.00  0.00    +0.145 C 
BRANCH   5   6
ATOM      6  N   GLU A   1      -6.553  -8.939  18.706  0.00  0.00    -0.238 NA
ATOM      7  H   GLU A   1      -7.419  -8.424  18.448  0.00  0.00    +0.142 HD
ENDBRANCH   5   6
BRANCH   5   8
ATOM      8  CB  GLU A   1      -5.494  -6.765  19.093  0.00  0.00    +0.038 C 
BRANCH   8   9
ATOM      9  CG  GLU A   1      -5.063  -6.641  17.677  0.00  0.00    +0.116 C 
BRANCH   9  10
ATOM     10  CD  GLU A   1      -4.388  -5.348  17.363  0.00  0.00    +0.365 C 
ATOM     11  OE2 GLU A   1      -4.972  -4.271  17.598  0.00  0.00    -0.246 OA
ATOM     12  OE1 GLU A   1      -3.274  -5.381  16.830  0.00  0.00    -0.246 OA
ENDBRANCH   9  10
ENDBRANCH   8   9
ENDBRANCH   5   8
ENDBRANCH   1   5
BRANCH   3  13
ATOM     13  CA  HIS A   2      -7.520  -8.345  22.747  0.00  0.00    +0.143 C 
BRANCH  13  14
ATOM     14  C   HIS A   2      -7.818  -9.822  22.759  0.00  0.00    +0.227 C 
ATOM     15  O   HIS A   2      -8.152 -10.431  21.735  0.00  0.00    -0.286 OA
ENDBRANCH  13  14
BRANCH  13  16
ATOM     16  CB  HIS A   2      -8.760  -7.524  23.125  0.00  0.00    +0.075 C 
BRANCH  16  17
ATOM     17  CG  HIS A   2      -8.442  -6.075  23.291  0.00  0.00    +0.082 A 
ATOM     18  CD2 HIS A   2      -8.046  -5.376  24.373  0.00  0.00    +0.115 A 
ATOM     19  NE2 HIS A   2      -7.803  -4.095  23.956  0.00  0.00    -0.221 NA
ATOM     20  CE1 HIS A   2      -8.069  -4.004  22.669  0.00  0.00    +0.199 A 
ATOM     21  ND1 HIS A   2      -8.476  -5.193  22.239  0.00  0.00    -0.227 NA
ENDBRANCH  16  17
ENDBRANCH  13  16
ENDBRANCH   3  13
TORSDOF 9
REMARK  Name = ../refined-set-2016/3oyq/3oyq_pocket.pdb
REMARK  165 active torsions:
REMARK  status: ('A' for Active; 'I' for Inactive)
REMARK    1  A    between atoms: _1  and  _3
REMARK    2  A    between atoms: _3  and  _4
REMARK    3  A    between atoms: _3  and  _6
REMARK    4  A    between atoms: _6  and  _7
REMARK    5  A    between atoms: _17  and  _19
REMARK    6  A    between atoms: _19  and  _20
REMARK    7  A    between atoms: _19  and  _22
REMARK    8  A    between atoms: _22  and  _23
REMARK    9  A    between atoms: _28  and  _29
REMARK   10  A    between atoms: _31  and  _33
REMARK   11  A    between atoms: _33  and  _34
REMARK   12  A    between atoms: _33  and  _36
REMARK   13  A    between atoms: _36  and  _37
REMARK   14  A    between atoms: _43  and  _45
REMARK   15  A    between atoms: _45  and  _46
REMARK   16  A    between atoms: _45  and  _48
REMARK   17  A    between atoms: _48  and  _49
REMARK   18  A    between atoms: _52  and  _53
REMARK   19  A    between atoms: _58  and  _60
REMARK   20  A    between atoms: _60  and  _61
REMARK   21  A    between atoms: _60  and  _63
REMARK   22  A    between atoms: _63  and  _64
REMARK   23  A    between atoms: _69  and  _71
REMARK   24  A    between atoms: _71  and  _72
REMARK   25  A    between atoms: _71  and  _74
REMARK   26  A    between atoms: _74  and  _75
REMARK   27  A    between atoms: _80  and  _82
REMARK   28  A    between atoms: _82  and  _83
REMARK   29  A    between atoms: _86  and  _88
REMARK   30  A    between atoms: _88  and  _89
REMARK   31  A    between atoms: _88  and  _91
REMARK   32  A    between atoms: _91  and  _92
REMARK   33  A    between atoms: _97  and  _99
REMARK   34  A    between atoms: _99  and  _100
REMARK   35  A    between atoms: _99  and  _102
REMARK   36  A    between atoms: _102  and  _103
REMARK   37  A    between atoms: _106  and  _108
REMARK   38  A    between atoms: _108  and  _109
REMARK   39  A    between atoms: _108  and  _111
REMARK   40  A    between atoms: _111  and  _112
REMARK   41  A    between atoms: _112  and  _113
REMARK   42  A    between atoms: _118  and  _120
REMARK   43  A    between atoms: _120  and  _121
REMARK   44  A    between atoms: _120  and  _123
REMARK   45  A    between atoms: _123  and  _124
REMARK   46  A    between atoms: _130  and  _132
REMARK   47  A    between atoms: _143  and  _146
REMARK   48  A    between atoms: _146  and  _147
REMARK   49  A    between atoms: _155  and  _156
REMARK   50  A    between atoms: _164  and  _166
REMARK   51  A    between atoms: _166  and  _167
REMARK   52  A    between atoms: _166  and  _169
REMARK   53  A    between atoms: _169  and  _170
REMARK   54  A    between atoms: _170  and  _171
REMARK   55  A    between atoms: _174  and  _176
REMARK   56  A    between atoms: _176  and  _177
REMARK   57  A    between atoms: _176  and  _179
REMARK   58  A    between atoms: _179  and  _180
REMARK   59  A    between atoms: _185  and  _187
REMARK   60  A    between atoms: _187  and  _188
REMARK   61  A    between atoms: _187  and  _190
REMARK   62  A    between atoms: _190  and  _191
REMARK   63  A    between atoms: _191  and  _192
REMARK   64  A    between atoms: _195  and  _197
REMARK   65  A    between atoms: _197  and  _198
REMARK   66  A    between atoms: _197  and  _200
REMARK   67  A    between atoms: _200  and  _201
REMARK   68  A    between atoms: _204  and  _206
REMARK   69  A    between atoms: _206  and  _207
REMARK   70  A    between atoms: _206  and  _209
REMARK   71  A    between atoms: _209  and  _210
REMARK   72  A    between atoms: _211  and  ZN_456
REMARK   73  A    between atoms: _215  and  _217
REMARK   74  A    between atoms: _217  and  _218
REMARK   75  A    between atoms: _217  and  _220
REMARK   76  A    between atoms: _220  and  _221
REMARK   77  A    between atoms: _224  and  _226
REMARK   78  A    between atoms: _226  and  _227
REMARK   79  A    between atoms: _226  and  _229
REMARK   80  A    between atoms: _232  and  _234
REMARK   81  A    between atoms: _234  and  _235
REMARK   82  A    between atoms: _234  and  _237
REMARK   83  A    between atoms: _237  and  _238
REMARK   84  A    between atoms: _243  and  _245
REMARK   85  A    between atoms: _245  and  _246
REMARK   86  A    between atoms: _245  and  _248
REMARK   87  A    between atoms: _248  and  _249
REMARK   88  A    between atoms: _255  and  _257
REMARK   89  A    between atoms: _257  and  _258
REMARK   90  A    between atoms: _260  and  _262
REMARK   91  A    between atoms: _262  and  _263
REMARK   92  A    between atoms: _262  and  _265
REMARK   93  A    between atoms: _265  and  _266
REMARK   94  A    between atoms: _266  and  _267
REMARK   95  A    between atoms: _267  and  _268
REMARK   96  A    between atoms: _268  and  _269
REMARK   97  A    between atoms: _273  and  _275
REMARK   98  A    between atoms: _275  and  _276
REMARK   99  A    between atoms: _275  and  _278
REMARK  100  A    between atoms: _281  and  _283
REMARK  101  A    between atoms: _283  and  _284
REMARK  102  A    between atoms: _283  and  _286
REMARK  103  A    between atoms: _286  and  _287
REMARK  104  A    between atoms: _287  and  _288
REMARK  105  A    between atoms: _293  and  _295
REMARK  106  A    between atoms: _295  and  _296
REMARK  107  A    between atoms: _295  and  _298
REMARK  108  A    between atoms: _298  and  _299
REMARK  109  A    between atoms: _302  and  _304
REMARK  110  A    between atoms: _304  and  _305
REMARK  111  A    between atoms: _308  and  _310
REMARK  112  A    between atoms: _310  and  _311
REMARK  113  A    between atoms: _310  and  _313
REMARK  114  A    between atoms: _316  and  _318
REMARK  115  A    between atoms: _318  and  _319
REMARK  116  A    between atoms: _318  and  _321
REMARK  117  A    between atoms: _321  and  _322
REMARK  118  A    between atoms: _325  and  _327
REMARK  119  A    between atoms: _327  and  _328
REMARK  120  A    between atoms: _330  and  _332
REMARK  121  A    between atoms: _332  and  _333
REMARK  122  A    between atoms: _332  and  _335
REMARK  123  A    between atoms: _335  and  _336
REMARK  124  A    between atoms: _338  and  _340
REMARK  125  A    between atoms: _340  and  _341
REMARK  126  A    between atoms: _340  and  _343
REMARK  127  A    between atoms: _343  and  _344
REMARK  128  A    between atoms: _347  and  _349
REMARK  129  A    between atoms: _349  and  _350
REMARK  130  A    between atoms: _349  and  _352
REMARK  131  A    between atoms: _352  and  _353
REMARK  132  A    between atoms: _356  and  _358
REMARK  133  A    between atoms: _358  and  _359
REMARK  134  A    between atoms: _358  and  _361
REMARK  135  A    between atoms: _361  and  _362
REMARK  136  A    between atoms: _366  and  _367
REMARK  137  A    between atoms: _373  and  _374
REMARK  138  A    between atoms: _379  and  _381
REMARK  139  A    between atoms: _381  and  _382
REMARK  140  A    between atoms: _381  and  _384
REMARK  141  A    between atoms: _384  and  _385
REMARK  142  A    between atoms: _388  and  _390
REMARK  143  A    between atoms: _390  and  _391
REMARK  144  A    between atoms: _390  and  _393
REMARK  145  A    between atoms: _393  and  _394
REMARK  146  A    between atoms: _397  and  _399
REMARK  147  A    between atoms: _399  and  _400
REMARK  148  A    between atoms: _399  and  _402
REMARK  149  A    between atoms: _404  and  _406
REMARK  150  A    between atoms: _406  and  _407
REMARK  151  A    between atoms: _406  and  _409
REMARK  152  A    between atoms: _412  and  _414
REMARK  153  A    between atoms: _414  and  _415
REMARK  154  A    between atoms: _414  and  _417
REMARK  155  A    between atoms: _417  and  _418
REMARK  156  A    between atoms: _428  and  _430
REMARK  157  A    between atoms: _430  and  _431
REMARK  158  A    between atoms: _430  and  _433
REMARK  159  A    between atoms: _433  and  _434
REMARK  160  A    between atoms: _439  and  _441
REMARK  161  A    between atoms: _441  and  _442
REMARK  162  A    between atoms: _441  and  _444
REMARK  163  A    between atoms: _444  and  _445
REMARK  164  A    between atoms: _445  and  _446
REMARK  165  A    between atoms: _446  and  _447
REMARK                            x       y       z     vdW  Elec       q    Type
REMARK                         _______ _______ _______ _____ _____    ______ ____
ROOT
ATOM      1  CA  GLY A   2      -3.998  14.759  15.105  0.00  0.00    +0.176 C 
ENDROOT
BRANCH   1   4
ATOM      2  C   PHE A   1      -6.203  13.861  15.522  0.00  0.00    +0.239 C 
ATOM      3  O   PHE A   1      -5.777  13.265  16.509  0.00  0.00    -0.274 OA
ATOM      4  N   GLY A   2      -5.406  14.630  14.768  0.00  0.00    -0.296 N 
ATOM      5  H   GLY A   2      -5.794  15.133  13.944  0.00  0.00    +0.150 HD
BRANCH   2   6
ATOM      6  CA  PHE A   1      -7.652  13.729  15.122  0.00  0.00    +0.149 C 
BRANCH   6   7
ATOM      7  N   PHE A   1      -8.223  15.002  14.723  0.00  0.00    -0.238 NA
ATOM      8  H   PHE A   1      -8.564  15.114  13.747  0.00  0.00    +0.142 HD
ENDBRANCH   6   7
BRANCH   6   9
ATOM      9  CB  PHE A   1      -7.806  12.746  13.979  0.00  0.00    +0.053 C 
BRANCH   9  10
ATOM     10  CG  PHE A   1      -7.247  11.404  14.254  0.00  0.00    -0.020 A 
ATOM     11  CD2 PHE A   1      -7.981  10.453  14.952  0.00  0.00    -0.004 A 
ATOM     12  CE2 PHE A   1      -7.472   9.224  15.196  0.00  0.00    -0.000 A 
ATOM     13  CZ  PHE A   1      -6.229   8.889  14.759  0.00  0.00    -0.000 A 
ATOM     14  CE1 PHE A   1      -5.463   9.825  14.059  0.00  0.00    -0.000 A 
ATOM     15  CD1 PHE A   1      -5.983  11.071  13.813  0.00  0.00    -0.004 A 
ENDBRANCH   9  10
ENDBRANCH   6   9
ENDBRANCH   2   6
ENDBRANCH   1   4
BRANCH   1  16
ATOM     16  C   GLY A   2      -3.753  15.391  16.469  0.00  0.00    +0.243 C 
ATOM     17  O   GLY A   2      -2.780  15.040  17.136  0.00  0.00    -0.273 OA
ATOM     18  N   LYS A   3      -4.613  16.322  16.881  0.00  0.00    -0.298 N 
ATOM     19  H   LYS A   3      -5.358  16.651  16.235  0.00  0.00    +0.150 HD
BRANCH  18  20
ATOM     20  CA  LYS A   3      -4.527  16.887  18.223  0.00  0.00    +0.137 C 
BRANCH  20  21
ATOM     21  C   LYS A   3      -5.003  15.880  19.283  0.00  0.00    +0.227 C 
ATOM     22  O   LYS A   3      -4.398  15.731  20.348  0.00  0.00    -0.286 OA
ENDBRANCH  20  21
BRANCH  20  23
ATOM     23  CB  LYS A   3      -5.331  18.173  18.326  0.00  0.00    +0.028 C 
BRANCH  23  24
ATOM     24  CG  LYS A   3      -4.722  19.311  17.598  0.00  0.00    -0.000 C 
BRANCH  24  25
ATOM     25  CD  LYS A   3      -3.344  19.654  18.168  0.00  0.00    -0.024 C 
BRANCH  25  26
ATOM     26  CE  LYS A   3      -3.441  20.781  19.187  0.00  0.00    -0.086 C 
BRANCH  26  27
ATOM     27  NZ  LYS A   3      -4.123  21.958  18.573  0.00  0.00    +0.380 N 
ATOM     28  HZ1 LYS A   3      -4.187  22.724  19.273  0.00  0.00    -0.089 HD
ATOM     29  HZ2 LYS A   3      -5.079  21.684  18.270  0.00  0.00    -0.089 HD
ATOM     30  HZ3 LYS A   3      -3.577  22.283  17.750  0.00  0.00    -0.089 HD
ENDBRANCH  26  27
ENDBRANCH  25  26
ENDBRANCH  24  25
ENDBRANCH  23  24
ENDBRANCH  20  23
ENDBRANCH  18  20
ENDBRANCH   1  16
TORSDOF 13
REMARK  Name = ../refined-set-2016/3oyq/3oyq_pocket.pdb
REMARK  165 active torsions:
REMARK  status: ('A' for Active; 'I' for Inactive)
REMARK    1  A    between atoms: _1  and  _3
REMARK    2  A    between atoms: _3  and  _4
REMARK    3  A    between atoms: _3  and  _6
REMARK    4  A    between atoms: _6  and  _7
REMARK    5  A    between atoms: _17  and  _19
REMARK    6  A    between atoms: _19  and  _20
REMARK    7  A    between atoms: _19  and  _22
REMARK    8  A    between atoms: _22  and  _23
REMARK    9  A    between atoms: _28  and  _29
REMARK   10  A    between atoms: _31  and  _33
REMARK   11  A    between atoms: _33  and  _34
REMARK   12  A    between atoms: _33  and  _36
REMARK   13  A    between atoms: _36  and  _37
REMARK   14  A    between atoms: _43  and  _45
REMARK   15  A    between atoms: _45  and  _46
REMARK   16  A    between atoms: _45  and  _48
REMARK   17  A    between atoms: _48  and  _49
REMARK   18  A    between atoms: _52  and  _53
REMARK   19  A    between atoms: _58  and  _60
REMARK   20  A    between atoms: _60  and  _61
REMARK   21  A    between atoms: _60  and  _63
REMARK   22  A    between atoms: _63  and  _64
REMARK   23  A    between atoms: _69  and  _71
REMARK   24  A    between atoms: _71  and  _72
REMARK   25  A    between atoms: _71  and  _74
REMARK   26  A    between atoms: _74  and  _75
REMARK   27  A    between atoms: _80  and  _82
REMARK   28  A    between atoms: _82  and  _83
REMARK   29  A    between atoms: _86  and  _88
REMARK   30  A    between atoms: _88  and  _89
REMARK   31  A    between atoms: _88  and  _91
REMARK   32  A    between atoms: _91  and  _92
REMARK   33  A    between atoms: _97  and  _99
REMARK   34  A    between atoms: _99  and  _100
REMARK   35  A    between atoms: _99  and  _102
REMARK   36  A    between atoms: _102  and  _103
REMARK   37  A    between atoms: _106  and  _108
REMARK   38  A    between atoms: _108  and  _109
REMARK   39  A    between atoms: _108  and  _111
REMARK   40  A    between atoms: _111  and  _112
REMARK   41  A    between atoms: _112  and  _113
REMARK   42  A    between atoms: _118  and  _120
REMARK   43  A    between atoms: _120  and  _121
REMARK   44  A    between atoms: _120  and  _123
REMARK   45  A    between atoms: _123  and  _124
REMARK   46  A    between atoms: _130  and  _132
REMARK   47  A    between atoms: _143  and  _146
REMARK   48  A    between atoms: _146  and  _147
REMARK   49  A    between atoms: _155  and  _156
REMARK   50  A    between atoms: _164  and  _166
REMARK   51  A    between atoms: _166  and  _167
REMARK   52  A    between atoms: _166  and  _169
REMARK   53  A    between atoms: _169  and  _170
REMARK   54  A    between atoms: _170  and  _171
REMARK   55  A    between atoms: _174  and  _176
REMARK   56  A    between atoms: _176  and  _177
REMARK   57  A    between atoms: _176  and  _179
REMARK   58  A    between atoms: _179  and  _180
REMARK   59  A    between atoms: _185  and  _187
REMARK   60  A    between atoms: _187  and  _188
REMARK   61  A    between atoms: _187  and  _190
REMARK   62  A    between atoms: _190  and  _191
REMARK   63  A    between atoms: _191  and  _192
REMARK   64  A    between atoms: _195  and  _197
REMARK   65  A    between atoms: _197  and  _198
REMARK   66  A    between atoms: _197  and  _200
REMARK   67  A    between atoms: _200  and  _201
REMARK   68  A    between atoms: _204  and  _206
REMARK   69  A    between atoms: _206  and  _207
REMARK   70  A    between atoms: _206  and  _209
REMARK   71  A    between atoms: _209  and  _210
REMARK   72  A    between atoms: _211  and  ZN_456
REMARK   73  A    between atoms: _215  and  _217
REMARK   74  A    between atoms: _217  and  _218
REMARK   75  A    between atoms: _217  and  _220
REMARK   76  A    between atoms: _220  and  _221
REMARK   77  A    between atoms: _224  and  _226
REMARK   78  A    between atoms: _226  and  _227
REMARK   79  A    between atoms: _226  and  _229
REMARK   80  A    between atoms: _232  and  _234
REMARK   81  A    between atoms: _234  and  _235
REMARK   82  A    between atoms: _234  and  _237
REMARK   83  A    between atoms: _237  and  _238
REMARK   84  A    between atoms: _243  and  _245
REMARK   85  A    between atoms: _245  and  _246
REMARK   86  A    between atoms: _245  and  _248
REMARK   87  A    between atoms: _248  and  _249
REMARK   88  A    between atoms: _255  and  _257
REMARK   89  A    between atoms: _257  and  _258
REMARK   90  A    between atoms: _260  and  _262
REMARK   91  A    between atoms: _262  and  _263
REMARK   92  A    between atoms: _262  and  _265
REMARK   93  A    between atoms: _265  and  _266
REMARK   94  A    between atoms: _266  and  _267
REMARK   95  A    between atoms: _267  and  _268
REMARK   96  A    between atoms: _268  and  _269
REMARK   97  A    between atoms: _273  and  _275
REMARK   98  A    between atoms: _275  and  _276
REMARK   99  A    between atoms: _275  and  _278
REMARK  100  A    between atoms: _281  and  _283
REMARK  101  A    between atoms: _283  and  _284
REMARK  102  A    between atoms: _283  and  _286
REMARK  103  A    between atoms: _286  and  _287
REMARK  104  A    between atoms: _287  and  _288
REMARK  105  A    between atoms: _293  and  _295
REMARK  106  A    between atoms: _295  and  _296
REMARK  107  A    between atoms: _295  and  _298
REMARK  108  A    between atoms: _298  and  _299
REMARK  109  A    between atoms: _302  and  _304
REMARK  110  A    between atoms: _304  and  _305
REMARK  111  A    between atoms: _308  and  _310
REMARK  112  A    between atoms: _310  and  _311
REMARK  113  A    between atoms: _310  and  _313
REMARK  114  A    between atoms: _316  and  _318
REMARK  115  A    between atoms: _318  and  _319
REMARK  116  A    between atoms: _318  and  _321
REMARK  117  A    between atoms: _321  and  _322
REMARK  118  A    between atoms: _325  and  _327
REMARK  119  A    between atoms: _327  and  _328
REMARK  120  A    between atoms: _330  and  _332
REMARK  121  A    between atoms: _332  and  _333
REMARK  122  A    between atoms: _332  and  _335
REMARK  123  A    between atoms: _335  and  _336
REMARK  124  A    between atoms: _338  and  _340
REMARK  125  A    between atoms: _340  and  _341
REMARK  126  A    between atoms: _340  and  _343
REMARK  127  A    between atoms: _343  and  _344
REMARK  128  A    between atoms: _347  and  _349
REMARK  129  A    between atoms: _349  and  _350
REMARK  130  A    between atoms: _349  and  _352
REMARK  131  A    between atoms: _352  and  _353
REMARK  132  A    between atoms: _356  and  _358
REMARK  133  A    between atoms: _358  and  _359
REMARK  134  A    between atoms: _358  and  _361
REMARK  135  A    between atoms: _361  and  _362
REMARK  136  A    between atoms: _366  and  _367
REMARK  137  A    between atoms: _373  and  _374
REMARK  138  A    between atoms: _379  and  _381
REMARK  139  A    between atoms: _381  and  _382
REMARK  140  A    between atoms: _381  and  _384
REMARK  141  A    between atoms: _384  and  _385
REMARK  142  A    between atoms: _388  and  _390
REMARK  143  A    between atoms: _390  and  _391
REMARK  144  A    between atoms: _390  and  _393
REMARK  145  A    between atoms: _393  and  _394
REMARK  146  A    between atoms: _397  and  _399
REMARK  147  A    between atoms: _399  and  _400
REMARK  148  A    between atoms: _399  and  _402
REMARK  149  A    between atoms: _404  and  _406
REMARK  150  A    between atoms: _406  and  _407
REMARK  151  A    between atoms: _406  and  _409
REMARK  152  A    between atoms: _412  and  _414
REMARK  153  A    between atoms: _414  and  _415
REMARK  154  A    between atoms: _414  and  _417
REMARK  155  A    between atoms: _417  and  _418
REMARK  156  A    between atoms: _428  and  _430
REMARK  157  A    between atoms: _430  and  _431
REMARK  158  A    between atoms: _430  and  _433
REMARK  159  A    between atoms: _433  and  _434
REMARK  160  A    between atoms: _439  and  _441
REMARK  161  A    between atoms: _441  and  _442
REMARK  162  A    between atoms: _441  and  _444
REMARK  163  A    between atoms: _444  and  _445
REMARK  164  A    between atoms: _445  and  _446
REMARK  165  A    between atoms: _446  and  _447
REMARK                            x       y       z     vdW  Elec       q    Type
REMARK                         _______ _______ _______ _____ _____    ______ ____
ROOT
ATOM      1  C   VAL A   1      -2.876  11.921  20.651  0.00  0.00    +0.238 C 
ATOM      2  O   VAL A   1      -2.189  11.062  21.210  0.00  0.00    -0.274 OA
ATOM      3  N   GLN A   2      -2.727  13.225  20.872  0.00  0.00    -0.298 N 
ATOM      4  H   GLN A   2      -3.321  13.898  20.346  0.00  0.00    +0.150 HD
ENDROOT
BRANCH   1   5
ATOM      5  CA  VAL A   1      -3.966  11.497  19.675  0.00  0.00    +0.145 C 
BRANCH   5   6
ATOM      6  CB  VAL A   1      -3.330  10.815  18.454  0.00  0.00    +0.025 C 
ATOM      7  CG2 VAL A   1      -2.460  11.753  17.683  0.00  0.00    +0.002 C 
ATOM      8  CG1 VAL A   1      -4.418  10.245  17.567  0.00  0.00    +0.002 C 
ENDBRANCH   5   6
BRANCH   5   9
ATOM      9  N   VAL A   1      -4.866  12.614  19.329  0.00  0.00    -0.238 NA
ATOM     10  H   VAL A   1      -4.864  13.008  18.366  0.00  0.00    +0.142 HD
ENDBRANCH   5   9
ENDBRANCH   1   5
BRANCH   3  11
ATOM     11  CA  GLN A   2      -1.755  13.736  21.830  0.00  0.00    +0.137 C 
BRANCH  11  12
ATOM     12  C   GLN A   2      -2.325  13.899  23.232  0.00  0.00    +0.227 C 
ATOM     13  O   GLN A   2      -1.666  14.437  24.129  0.00  0.00    -0.286 OA
ENDBRANCH  11  12
BRANCH  11  14
ATOM     14  CB  GLN A   2      -1.226  15.088  21.328  0.00  0.00    +0.037 C 
BRANCH  14  15
ATOM     15  CG  GLN A   2      -0.590  15.013  19.956  0.00  0.00    +0.087 C 
BRANCH  15  16
ATOM     16  CD  GLN A   2      -0.126  16.366  19.460  0.00  0.00    +0.219 C 
ATOM     17  OE1 GLN A   2       0.678  17.035  20.107  0.00  0.00    -0.275 OA
ATOM     18  NE2 GLN A   2      -0.642  16.778  18.312  0.00  0.00    -0.329 N 
ATOM     19 HE21 GLN A   2      -0.370  17.703  17.922  0.00  0.00    +0.145 HD
ATOM     20 HE22 GLN A   2      -1.319  16.177  17.801  0.00  0.00    +0.145 HD
ENDBRANCH  15  16
ENDBRANCH  14  15
ENDBRANCH  11  14
ENDBRANCH   3  11
TORSDOF 8
REMARK  Name = ../refined-set-2016/3oyq/3oyq_pocket.pdb
REMARK  165 active torsions:
REMARK  status: ('A' for Active; 'I' for Inactive)
REMARK    1  A    between atoms: _1  and  _3
REMARK    2  A    between atoms: _3  and  _4
REMARK    3  A    between atoms: _3  and  _6
REMARK    4  A    between atoms: _6  and  _7
REMARK    5  A    between atoms: _17  and  _19
REMARK    6  A    between atoms: _19  and  _20
REMARK    7  A    between atoms: _19  and  _22
REMARK    8  A    between atoms: _22  and  _23
REMARK    9  A    between atoms: _28  and  _29
REMARK   10  A    between atoms: _31  and  _33
REMARK   11  A    between atoms: _33  and  _34
REMARK   12  A    between atoms: _33  and  _36
REMARK   13  A    between atoms: _36  and  _37
REMARK   14  A    between atoms: _43  and  _45
REMARK   15  A    between atoms: _45  and  _46
REMARK   16  A    between atoms: _45  and  _48
REMARK   17  A    between atoms: _48  and  _49
REMARK   18  A    between atoms: _52  and  _53
REMARK   19  A    between atoms: _58  and  _60
REMARK   20  A    between atoms: _60  and  _61
REMARK   21  A    between atoms: _60  and  _63
REMARK   22  A    between atoms: _63  and  _64
REMARK   23  A    between atoms: _69  and  _71
REMARK   24  A    between atoms: _71  and  _72
REMARK   25  A    between atoms: _71  and  _74
REMARK   26  A    between atoms: _74  and  _75
REMARK   27  A    between atoms: _80  and  _82
REMARK   28  A    between atoms: _82  and  _83
REMARK   29  A    between atoms: _86  and  _88
REMARK   30  A    between atoms: _88  and  _89
REMARK   31  A    between atoms: _88  and  _91
REMARK   32  A    between atoms: _91  and  _92
REMARK   33  A    between atoms: _97  and  _99
REMARK   34  A    between atoms: _99  and  _100
REMARK   35  A    between atoms: _99  and  _102
REMARK   36  A    between atoms: _102  and  _103
REMARK   37  A    between atoms: _106  and  _108
REMARK   38  A    between atoms: _108  and  _109
REMARK   39  A    between atoms: _108  and  _111
REMARK   40  A    between atoms: _111  and  _112
REMARK   41  A    between atoms: _112  and  _113
REMARK   42  A    between atoms: _118  and  _120
REMARK   43  A    between atoms: _120  and  _121
REMARK   44  A    between atoms: _120  and  _123
REMARK   45  A    between atoms: _123  and  _124
REMARK   46  A    between atoms: _130  and  _132
REMARK   47  A    between atoms: _143  and  _146
REMARK   48  A    between atoms: _146  and  _147
REMARK   49  A    between atoms: _155  and  _156
REMARK   50  A    between atoms: _164  and  _166
REMARK   51  A    between atoms: _166  and  _167
REMARK   52  A    between atoms: _166  and  _169
REMARK   53  A    between atoms: _169  and  _170
REMARK   54  A    between atoms: _170  and  _171
REMARK   55  A    between atoms: _174  and  _176
REMARK   56  A    between atoms: _176  and  _177
REMARK   57  A    between atoms: _176  and  _179
REMARK   58  A    between atoms: _179  and  _180
REMARK   59  A    between atoms: _185  and  _187
REMARK   60  A    between atoms: _187  and  _188
REMARK   61  A    between atoms: _187  and  _190
REMARK   62  A    between atoms: _190  and  _191
REMARK   63  A    between atoms: _191  and  _192
REMARK   64  A    between atoms: _195  and  _197
REMARK   65  A    between atoms: _197  and  _198
REMARK   66  A    between atoms: _197  and  _200
REMARK   67  A    between atoms: _200  and  _201
REMARK   68  A    between atoms: _204  and  _206
REMARK   69  A    between atoms: _206  and  _207
REMARK   70  A    between atoms: _206  and  _209
REMARK   71  A    between atoms: _209  and  _210
REMARK   72  A    between atoms: _211  and  ZN_456
REMARK   73  A    between atoms: _215  and  _217
REMARK   74  A    between atoms: _217  and  _218
REMARK   75  A    between atoms: _217  and  _220
REMARK   76  A    between atoms: _220  and  _221
REMARK   77  A    between atoms: _224  and  _226
REMARK   78  A    between atoms: _226  and  _227
REMARK   79  A    between atoms: _226  and  _229
REMARK   80  A    between atoms: _232  and  _234
REMARK   81  A    between atoms: _234  and  _235
REMARK   82  A    between atoms: _234  and  _237
REMARK   83  A    between atoms: _237  and  _238
REMARK   84  A    between atoms: _243  and  _245
REMARK   85  A    between atoms: _245  and  _246
REMARK   86  A    between atoms: _245  and  _248
REMARK   87  A    between atoms: _248  and  _249
REMARK   88  A    between atoms: _255  and  _257
REMARK   89  A    between atoms: _257  and  _258
REMARK   90  A    between atoms: _260  and  _262
REMARK   91  A    between atoms: _262  and  _263
REMARK   92  A    between atoms: _262  and  _265
REMARK   93  A    between atoms: _265  and  _266
REMARK   94  A    between atoms: _266  and  _267
REMARK   95  A    between atoms: _267  and  _268
REMARK   96  A    between atoms: _268  and  _269
REMARK   97  A    between atoms: _273  and  _275
REMARK   98  A    between atoms: _275  and  _276
REMARK   99  A    between atoms: _275  and  _278
REMARK  100  A    between atoms: _281  and  _283
REMARK  101  A    between atoms: _283  and  _284
REMARK  102  A    between atoms: _283  and  _286
REMARK  103  A    between atoms: _286  and  _287
REMARK  104  A    between atoms: _287  and  _288
REMARK  105  A    between atoms: _293  and  _295
REMARK  106  A    between atoms: _295  and  _296
REMARK  107  A    between atoms: _295  and  _298
REMARK  108  A    between atoms: _298  and  _299
REMARK  109  A    between atoms: _302  and  _304
REMARK  110  A    between atoms: _304  and  _305
REMARK  111  A    between atoms: _308  and  _310
REMARK  112  A    between atoms: _310  and  _311
REMARK  113  A    between atoms: _310  and  _313
REMARK  114  A    between atoms: _316  and  _318
REMARK  115  A    between atoms: _318  and  _319
REMARK  116  A    between atoms: _318  and  _321
REMARK  117  A    between atoms: _321  and  _322
REMARK  118  A    between atoms: _325  and  _327
REMARK  119  A    between atoms: _327  and  _328
REMARK  120  A    between atoms: _330  and  _332
REMARK  121  A    between atoms: _332  and  _333
REMARK  122  A    between atoms: _332  and  _335
REMARK  123  A    between atoms: _335  and  _336
REMARK  124  A    between atoms: _338  and  _340
REMARK  125  A    between atoms: _340  and  _341
REMARK  126  A    between atoms: _340  and  _343
REMARK  127  A    between atoms: _343  and  _344
REMARK  128  A    between atoms: _347  and  _349
REMARK  129  A    between atoms: _349  and  _350
REMARK  130  A    between atoms: _349  and  _352
REMARK  131  A    between atoms: _352  and  _353
REMARK  132  A    between atoms: _356  and  _358
REMARK  133  A    between atoms: _358  and  _359
REMARK  134  A    between atoms: _358  and  _361
REMARK  135  A    between atoms: _361  and  _362
REMARK  136  A    between atoms: _366  and  _367
REMARK  137  A    between atoms: _373  and  _374
REMARK  138  A    between atoms: _379  and  _381
REMARK  139  A    between atoms: _381  and  _382
REMARK  140  A    between atoms: _381  and  _384
REMARK  141  A    between atoms: _384  and  _385
REMARK  142  A    between atoms: _388  and  _390
REMARK  143  A    between atoms: _390  and  _391
REMARK  144  A    between atoms: _390  and  _393
REMARK  145  A    between atoms: _393  and  _394
REMARK  146  A    between atoms: _397  and  _399
REMARK  147  A    between atoms: _399  and  _400
REMARK  148  A    between atoms: _399  and  _402
REMARK  149  A    between atoms: _404  and  _406
REMARK  150  A    between atoms: _406  and  _407
REMARK  151  A    between atoms: _406  and  _409
REMARK  152  A    between atoms: _412  and  _414
REMARK  153  A    between atoms: _414  and  _415
REMARK  154  A    between atoms: _414  and  _417
REMARK  155  A    between atoms: _417  and  _418
REMARK  156  A    between atoms: _428  and  _430
REMARK  157  A    between atoms: _430  and  _431
REMARK  158  A    between atoms: _430  and  _433
REMARK  159  A    between atoms: _433  and  _434
REMARK  160  A    between atoms: _439  and  _441
REMARK  161  A    between atoms: _441  and  _442
REMARK  162  A    between atoms: _441  and  _444
REMARK  163  A    between atoms: _444  and  _445
REMARK  164  A    between atoms: _445  and  _446
REMARK  165  A    between atoms: _446  and  _447
REMARK                            x       y       z     vdW  Elec       q    Type
REMARK                         _______ _______ _______ _____ _____    ______ ____
ROOT
ATOM      1  C   ALA A   2     -12.415   5.023  20.841  0.00  0.00    +0.241 C 
ATOM      2  N   VAL A   3     -11.901   3.812  21.097  0.00  0.00    -0.297 N 
ATOM      3  H   VAL A   3     -11.457   3.623  22.018  0.00  0.00    +0.150 HD
ATOM      4  O   ALA A   2     -12.814   5.353  19.726  0.00  0.00    -0.273 OA
ENDROOT
BRANCH   1   5
ATOM      5  CA  ALA A   2     -12.367   6.041  21.969  0.00  0.00    +0.149 C 
ATOM      6  CB  ALA A   2     -13.756   6.463  22.378  0.00  0.00    +0.031 C 
BRANCH   5   9
ATOM      7  C   LEU A   1     -10.540   7.687  22.109  0.00  0.00    +0.238 C 
ATOM      8  O   LEU A   1     -10.249   7.414  23.263  0.00  0.00    -0.274 OA
ATOM      9  N   ALA A   2     -11.593   7.174  21.465  0.00  0.00    -0.297 N 
ATOM     10  H   ALA A   2     -11.876   7.602  20.560  0.00  0.00    +0.150 HD
BRANCH   7  11
ATOM     11  CA  LEU A   1      -9.675   8.612  21.294  0.00  0.00    +0.145 C 
BRANCH  11  12
ATOM     12  N   LEU A   1      -9.015   9.587  22.154  0.00  0.00    -0.238 NA
ATOM     13  H   LEU A   1      -8.424   9.242  22.937  0.00  0.00    +0.142 HD
ENDBRANCH  11  12
BRANCH  11  14
ATOM     14  CB  LEU A   1      -8.658   7.762  20.549  0.00  0.00    +0.026 C 
BRANCH  14  15
ATOM     15  CG  LEU A   1      -8.048   8.328  19.269  0.00  0.00    +0.002 C 
ATOM     16  CD2 LEU A   1      -7.428   9.656  19.435  0.00  0.00    +0.000 C 
ATOM     17  CD1 LEU A   1      -7.107   7.361  18.534  0.00  0.00    +0.000 C 
ENDBRANCH  14  15
ENDBRANCH  11  14
ENDBRANCH   7  11
ENDBRANCH   5   9
ENDBRANCH   1   5
BRANCH   2  18
ATOM     18  CA  VAL A   3     -11.960   2.760  20.093  0.00  0.00    +0.149 C 
BRANCH  18  19
ATOM     19  C   VAL A   3     -12.898   1.685  20.584  0.00  0.00    +0.241 C 
ATOM     20  O   VAL A   3     -12.765   1.189  21.699  0.00  0.00    -0.273 OA
ATOM     21  N   LEU A   4     -13.919   1.429  19.755  0.00  0.00    -0.298 N 
ATOM     22  H   LEU A   4     -14.016   2.024  18.907  0.00  0.00    +0.150 HD
BRANCH  21  23
ATOM     23  CA  LEU A   4     -14.903   0.374  19.960  0.00  0.00    +0.137 C 
BRANCH  23  24
ATOM     24  C   LEU A   4     -14.369  -0.900  19.287  0.00  0.00    +0.227 C 
ATOM     25  O   LEU A   4     -14.174  -0.931  18.055  0.00  0.00    -0.286 OA
ENDBRANCH  23  24
BRANCH  23  26
ATOM     26  CB  LEU A   4     -16.258   0.788  19.369  0.00  0.00    +0.028 C 
BRANCH  26  27
ATOM     27  CG  LEU A   4     -17.429  -0.165  19.579  0.00  0.00    +0.002 C 
ATOM     28  CD2 LEU A   4     -17.665  -0.436  21.032  0.00  0.00    +0.000 C 
ATOM     29  CD1 LEU A   4     -18.673   0.429  18.902  0.00  0.00    +0.000 C 
ENDBRANCH  26  27
ENDBRANCH  23  26
ENDBRANCH  21  23
ENDBRANCH  18  19
BRANCH  18  30
ATOM     30  CB  VAL A   3     -10.584   2.167  19.726  0.00  0.00    +0.027 C 
ATOM     31  CG2 VAL A   3      -9.663   3.255  19.241  0.00  0.00    +0.002 C 
ATOM     32  CG1 VAL A   3     -10.721   1.137  18.620  0.00  0.00    +0.002 C 
ENDBRANCH  18  30
ENDBRANCH   2  18
TORSDOF 13
REMARK  Name = ../refined-set-2016/3oyq/3oyq_pocket.pdb
REMARK  165 active torsions:
REMARK  status: ('A' for Active; 'I' for Inactive)
REMARK    1  A    between atoms: _1  and  _3
REMARK    2  A    between atoms: _3  and  _4
REMARK    3  A    between atoms: _3  and  _6
REMARK    4  A    between atoms: _6  and  _7
REMARK    5  A    between atoms: _17  and  _19
REMARK    6  A    between atoms: _19  and  _20
REMARK    7  A    between atoms: _19  and  _22
REMARK    8  A    between atoms: _22  and  _23
REMARK    9  A    between atoms: _28  and  _29
REMARK   10  A    between atoms: _31  and  _33
REMARK   11  A    between atoms: _33  and  _34
REMARK   12  A    between atoms: _33  and  _36
REMARK   13  A    between atoms: _36  and  _37
REMARK   14  A    between atoms: _43  and  _45
REMARK   15  A    between atoms: _45  and  _46
REMARK   16  A    between atoms: _45  and  _48
REMARK   17  A    between atoms: _48  and  _49
REMARK   18  A    between atoms: _52  and  _53
REMARK   19  A    between atoms: _58  and  _60
REMARK   20  A    between atoms: _60  and  _61
REMARK   21  A    between atoms: _60  and  _63
REMARK   22  A    between atoms: _63  and  _64
REMARK   23  A    between atoms: _69  and  _71
REMARK   24  A    between atoms: _71  and  _72
REMARK   25  A    between atoms: _71  and  _74
REMARK   26  A    between atoms: _74  and  _75
REMARK   27  A    between atoms: _80  and  _82
REMARK   28  A    between atoms: _82  and  _83
REMARK   29  A    between atoms: _86  and  _88
REMARK   30  A    between atoms: _88  and  _89
REMARK   31  A    between atoms: _88  and  _91
REMARK   32  A    between atoms: _91  and  _92
REMARK   33  A    between atoms: _97  and  _99
REMARK   34  A    between atoms: _99  and  _100
REMARK   35  A    between atoms: _99  and  _102
REMARK   36  A    between atoms: _102  and  _103
REMARK   37  A    between atoms: _106  and  _108
REMARK   38  A    between atoms: _108  and  _109
REMARK   39  A    between atoms: _108  and  _111
REMARK   40  A    between atoms: _111  and  _112
REMARK   41  A    between atoms: _112  and  _113
REMARK   42  A    between atoms: _118  and  _120
REMARK   43  A    between atoms: _120  and  _121
REMARK   44  A    between atoms: _120  and  _123
REMARK   45  A    between atoms: _123  and  _124
REMARK   46  A    between atoms: _130  and  _132
REMARK   47  A    between atoms: _143  and  _146
REMARK   48  A    between atoms: _146  and  _147
REMARK   49  A    between atoms: _155  and  _156
REMARK   50  A    between atoms: _164  and  _166
REMARK   51  A    between atoms: _166  and  _167
REMARK   52  A    between atoms: _166  and  _169
REMARK   53  A    between atoms: _169  and  _170
REMARK   54  A    between atoms: _170  and  _171
REMARK   55  A    between atoms: _174  and  _176
REMARK   56  A    between atoms: _176  and  _177
REMARK   57  A    between atoms: _176  and  _179
REMARK   58  A    between atoms: _179  and  _180
REMARK   59  A    between atoms: _185  and  _187
REMARK   60  A    between atoms: _187  and  _188
REMARK   61  A    between atoms: _187  and  _190
REMARK   62  A    between atoms: _190  and  _191
REMARK   63  A    between atoms: _191  and  _192
REMARK   64  A    between atoms: _195  and  _197
REMARK   65  A    between atoms: _197  and  _198
REMARK   66  A    between atoms: _197  and  _200
REMARK   67  A    between atoms: _200  and  _201
REMARK   68  A    between atoms: _204  and  _206
REMARK   69  A    between atoms: _206  and  _207
REMARK   70  A    between atoms: _206  and  _209
REMARK   71  A    between atoms: _209  and  _210
REMARK   72  A    between atoms: _211  and  ZN_456
REMARK   73  A    between atoms: _215  and  _217
REMARK   74  A    between atoms: _217  and  _218
REMARK   75  A    between atoms: _217  and  _220
REMARK   76  A    between atoms: _220  and  _221
REMARK   77  A    between atoms: _224  and  _226
REMARK   78  A    between atoms: _226  and  _227
REMARK   79  A    between atoms: _226  and  _229
REMARK   80  A    between atoms: _232  and  _234
REMARK   81  A    between atoms: _234  and  _235
REMARK   82  A    between atoms: _234  and  _237
REMARK   83  A    between atoms: _237  and  _238
REMARK   84  A    between atoms: _243  and  _245
REMARK   85  A    between atoms: _245  and  _246
REMARK   86  A    between atoms: _245  and  _248
REMARK   87  A    between atoms: _248  and  _249
REMARK   88  A    between atoms: _255  and  _257
REMARK   89  A    between atoms: _257  and  _258
REMARK   90  A    between atoms: _260  and  _262
REMARK   91  A    between atoms: _262  and  _263
REMARK   92  A    between atoms: _262  and  _265
REMARK   93  A    between atoms: _265  and  _266
REMARK   94  A    between atoms: _266  and  _267
REMARK   95  A    between atoms: _267  and  _268
REMARK   96  A    between atoms: _268  and  _269
REMARK   97  A    between atoms: _273  and  _275
REMARK   98  A    between atoms: _275  and  _276
REMARK   99  A    between atoms: _275  and  _278
REMARK  100  A    between atoms: _281  and  _283
REMARK  101  A    between atoms: _283  and  _284
REMARK  102  A    between atoms: _283  and  _286
REMARK  103  A    between atoms: _286  and  _287
REMARK  104  A    between atoms: _287  and  _288
REMARK  105  A    between atoms: _293  and  _295
REMARK  106  A    between atoms: _295  and  _296
REMARK  107  A    between atoms: _295  and  _298
REMARK  108  A    between atoms: _298  and  _299
REMARK  109  A    between atoms: _302  and  _304
REMARK  110  A    between atoms: _304  and  _305
REMARK  111  A    between atoms: _308  and  _310
REMARK  112  A    between atoms: _310  and  _311
REMARK  113  A    between atoms: _310  and  _313
REMARK  114  A    between atoms: _316  and  _318
REMARK  115  A    between atoms: _318  and  _319
REMARK  116  A    between atoms: _318  and  _321
REMARK  117  A    between atoms: _321  and  _322
REMARK  118  A    between atoms: _325  and  _327
REMARK  119  A    between atoms: _327  and  _328
REMARK  120  A    between atoms: _330  and  _332
REMARK  121  A    between atoms: _332  and  _333
REMARK  122  A    between atoms: _332  and  _335
REMARK  123  A    between atoms: _335  and  _336
REMARK  124  A    between atoms: _338  and  _340
REMARK  125  A    between atoms: _340  and  _341
REMARK  126  A    between atoms: _340  and  _343
REMARK  127  A    between atoms: _343  and  _344
REMARK  128  A    between atoms: _347  and  _349
REMARK  129  A    between atoms: _349  and  _350
REMARK  130  A    between atoms: _349  and  _352
REMARK  131  A    between atoms: _352  and  _353
REMARK  132  A    between atoms: _356  and  _358
REMARK  133  A    between atoms: _358  and  _359
REMARK  134  A    between atoms: _358  and  _361
REMARK  135  A    between atoms: _361  and  _362
REMARK  136  A    between atoms: _366  and  _367
REMARK  137  A    between atoms: _373  and  _374
REMARK  138  A    between atoms: _379  and  _381
REMARK  139  A    between atoms: _381  and  _382
REMARK  140  A    between atoms: _381  and  _384
REMARK  141  A    between atoms: _384  and  _385
REMARK  142  A    between atoms: _388  and  _390
REMARK  143  A    between atoms: _390  and  _391
REMARK  144  A    between atoms: _390  and  _393
REMARK  145  A    between atoms: _393  and  _394
REMARK  146  A    between atoms: _397  and  _399
REMARK  147  A    between atoms: _399  and  _400
REMARK  148  A    between atoms: _399  and  _402
REMARK  149  A    between atoms: _404  and  _406
REMARK  150  A    between atoms: _406  and  _407
REMARK  151  A    between atoms: _406  and  _409
REMARK  152  A    between atoms: _412  and  _414
REMARK  153  A    between atoms: _414  and  _415
REMARK  154  A    between atoms: _414  and  _417
REMARK  155  A    between atoms: _417  and  _418
REMARK  156  A    between atoms: _428  and  _430
REMARK  157  A    between atoms: _430  and  _431
REMARK  158  A    between atoms: _430  and  _433
REMARK  159  A    between atoms: _433  and  _434
REMARK  160  A    between atoms: _439  and  _441
REMARK  161  A    between atoms: _441  and  _442
REMARK  162  A    between atoms: _441  and  _444
REMARK  163  A    between atoms: _444  and  _445
REMARK  164  A    between atoms: _445  and  _446
REMARK  165  A    between atoms: _446  and  _447
REMARK                            x       y       z     vdW  Elec       q    Type
REMARK                         _______ _______ _______ _____ _____    ______ ____
ROOT
ATOM      1  CA  THR A   5       0.259   0.104  16.102  0.00  0.00    +0.176 C 
ENDROOT
BRANCH   1   2
ATOM      2  C   THR A   5       1.058   1.358  16.399  0.00  0.00    +0.246 C 
ATOM      3  O   THR A   5       0.548   2.324  16.983  0.00  0.00    -0.273 OA
ATOM      4  N   PRO A   6       2.317   1.367  15.951  0.00  0.00    -0.272 N 
ATOM      5  CA  PRO A   6       3.082   2.606  16.072  0.00  0.00    +0.152 C 
ATOM      6  CB  PRO A   6       4.328   2.286  15.245  0.00  0.00    +0.031 C 
ATOM      7  CG  PRO A   6       4.540   0.845  15.470  0.00  0.00    +0.024 C 
ATOM      8  CD  PRO A   6       3.125   0.285  15.372  0.00  0.00    +0.094 C 
BRANCH   5   9
ATOM      9  C   PRO A   6       2.255   3.758  15.501  0.00  0.00    +0.244 C 
ATOM     10  N   PRO A   7       2.277   4.916  16.155  0.00  0.00    -0.272 N 
ATOM     11  CA  PRO A   7       3.182   5.305  17.251  0.00  0.00    +0.152 C 
ATOM     12  CB  PRO A   7       3.211   6.824  17.120  0.00  0.00    +0.031 C 
ATOM     13  CG  PRO A   7       1.899   7.184  16.554  0.00  0.00    +0.024 C 
ATOM     14  CD  PRO A   7       1.506   6.067  15.645  0.00  0.00    +0.094 C 
ATOM     15  O   PRO A   6       1.565   3.596  14.467  0.00  0.00    -0.273 OA
BRANCH  11  16
ATOM     16  C   PRO A   7       2.803   4.904  18.684  0.00  0.00    +0.241 C 
ATOM     17  O   PRO A   7       3.426   5.367  19.629  0.00  0.00    -0.273 OA
ATOM     18  N   LEU A   8       1.813   4.030  18.847  0.00  0.00    -0.297 N 
ATOM     19  H   LEU A   8       1.223   3.772  18.030  0.00  0.00    +0.150 HD
BRANCH  18  20
ATOM     20  CA  LEU A   8       1.533   3.419  20.158  0.00  0.00    +0.149 C 
BRANCH  20  21
ATOM     21  C   LEU A   8       1.157   4.430  21.236  0.00  0.00    +0.241 C 
ATOM     22  O   LEU A   8       1.275   4.166  22.423  0.00  0.00    -0.273 OA
ATOM     23  N   LEU A   9       0.585   5.554  20.791  0.00  0.00    -0.298 N 
ATOM     24  H   LEU A   9       0.370   5.655  19.779  0.00  0.00    +0.150 HD
BRANCH  23  25
ATOM     25  CA  LEU A   9       0.260   6.638  21.706  0.00  0.00    +0.137 C 
BRANCH  25  26
ATOM     26  C   LEU A   9      -0.786   6.237  22.730  0.00  0.00    +0.227 C 
ATOM     27  O   LEU A   9      -1.781   5.568  22.410  0.00  0.00    -0.286 OA
ENDBRANCH  25  26
BRANCH  25  28
ATOM     28  CB  LEU A   9      -0.209   7.873  20.924  0.00  0.00    +0.028 C 
BRANCH  28  29
ATOM     29  CG  LEU A   9       0.849   8.478  19.978  0.00  0.00    +0.002 C 
ATOM     30  CD2 LEU A   9       1.979   9.070  20.783  0.00  0.00    +0.000 C 
ATOM     31  CD1 LEU A   9       0.238   9.528  19.027  0.00  0.00    +0.000 C 
ENDBRANCH  28  29
ENDBRANCH  25  28
ENDBRANCH  23  25
ENDBRANCH  20  21
BRANCH  20  32
ATOM     32  CB  LEU A   8       2.690   2.520  20.610  0.00  0.00    +0.029 C 
BRANCH  32  33
ATOM     33  CG  LEU A   8       2.989   1.366  19.647  0.00  0.00    +0.002 C 
ATOM     34  CD2 LEU A   8       4.278   0.709  20.050  0.00  0.00    +0.000 C 
ATOM     35  CD1 LEU A   8       1.888   0.304  19.563  0.00  0.00    +0.000 C 
ENDBRANCH  32  33
ENDBRANCH  20  32
ENDBRANCH  18  20
ENDBRANCH  11  16
ENDBRANCH   5   9
ENDBRANCH   1   2
BRANCH   1  38
ATOM     36  C   THR A   4      -1.028  -1.046  17.855  0.00  0.00    +0.243 C 
ATOM     37  O   THR A   4      -0.436  -2.091  17.712  0.00  0.00    -0.273 OA
ATOM     38  N   THR A   5      -0.837   0.025  17.073  0.00  0.00    -0.295 N 
ATOM     39  H   THR A   5      -1.490   0.830  17.158  0.00  0.00    +0.150 HD
BRANCH  36  40
ATOM     40  CA  THR A   4      -2.038  -0.934  18.979  0.00  0.00    +0.176 C 
BRANCH  40  43
ATOM     41  C   LEU A   3      -2.276   1.333  19.825  0.00  0.00    +0.241 C 
ATOM     42  O   LEU A   3      -1.273   1.185  20.550  0.00  0.00    -0.273 OA
ATOM     43  N   THR A   4      -2.712   0.378  19.011  0.00  0.00    -0.295 N 
ATOM     44  H   THR A   4      -3.531   0.556  18.395  0.00  0.00    +0.150 HD
BRANCH  41  45
ATOM     45  CA  LEU A   3      -3.019   2.641  19.796  0.00  0.00    +0.149 C 
BRANCH  45  48
ATOM     46  C   SER A   2      -3.561   2.523  22.160  0.00  0.00    +0.243 C 
ATOM     47  O   SER A   2      -4.340   1.564  21.988  0.00  0.00    -0.273 OA
ATOM     48  N   LEU A   3      -3.011   3.179  21.151  0.00  0.00    -0.297 N 
ATOM     49  H   LEU A   3      -2.562   4.100  21.329  0.00  0.00    +0.150 HD
BRANCH  46  50
ATOM     50  CA  SER A   2      -3.113   2.922  23.562  0.00  0.00    +0.178 C 
BRANCH  50  53
ATOM     51  C   GLY A   1      -4.330   2.943  25.673  0.00  0.00    +0.240 C 
ATOM     52  O   GLY A   1      -4.235   4.162  25.801  0.00  0.00    -0.274 OA
ATOM     53  N   SER A   2      -3.925   2.297  24.608  0.00  0.00    -0.295 N 
ATOM     54  H   SER A   2      -4.192   1.297  24.501  0.00  0.00    +0.150 HD
BRANCH  51  55
ATOM     55  CA  GLY A   1      -4.893   2.084  26.753  0.00  0.00    +0.169 C 
BRANCH  55  56
ATOM     56  N   GLY A   1      -5.981   2.709  27.484  0.00  0.00    -0.236 NA
ATOM     57  H   GLY A   1      -6.575   3.426  27.021  0.00  0.00    +0.142 HD
ENDBRANCH  55  56
ENDBRANCH  51  55
ENDBRANCH  50  53
BRANCH  50  58
ATOM     58  CB  SER A   2      -1.632   2.527  23.726  0.00  0.00    +0.166 C 
BRANCH  58  59
ATOM     59  OG  SER A   2      -1.371   1.169  23.311  0.00  0.00    -0.380 OA
ATOM     60  H   SER A   2      -1.610   1.065  22.356  0.00  0.00    +0.211 HD
ENDBRANCH  58  59
ENDBRANCH  50  58
ENDBRANCH  46  50
ENDBRANCH  45  48
BRANCH  45  61
ATOM     61  CB  LEU A   3      -2.296   3.587  18.829  0.00  0.00    +0.029 C 
BRANCH  61  62
ATOM     62  CG  LEU A   3      -2.790   5.017  18.781  0.00  0.00    +0.002 C 
ATOM     63  CD2 LEU A   3      -4.259   5.075  18.381  0.00  0.00    +0.000 C 
ATOM     64  CD1 LEU A   3      -1.929   5.858  17.841  0.00  0.00    +0.000 C 
ENDBRANCH  61  62
ENDBRANCH  45  61
ENDBRANCH  41  45
ENDBRANCH  40  43
BRANCH  40  65
ATOM     65  CB  THR A   4      -3.050  -2.070  18.864  0.00  0.00    +0.137 C 
ATOM     66  CG2 THR A   4      -4.072  -2.012  20.009  0.00  0.00    +0.034 C 
BRANCH  65  67
ATOM     67  OG1 THR A   4      -3.673  -2.001  17.562  0.00  0.00    -0.382 OA
ATOM     68  HG1 THR A   4      -4.333  -2.734  17.474  0.00  0.00    +0.210 HD
ENDBRANCH  65  67
ENDBRANCH  40  65
ENDBRANCH  36  40
ENDBRANCH   1  38
BRANCH   1  69
ATOM     69  CB  THR A   5      -0.221   0.192  14.654  0.00  0.00    +0.137 C 
ATOM     70  CG2 THR A   5      -1.171  -0.905  14.327  0.00  0.00    +0.034 C 
BRANCH  69  71
ATOM     71  OG1 THR A   5      -0.896   1.418  14.457  0.00  0.00    -0.382 OA
ATOM     72  HG1 THR A   5      -0.278   2.168  14.647  0.00  0.00    +0.210 HD
ENDBRANCH  69  71
ENDBRANCH   1  69
TORSDOF 28
REMARK  Name = ../refined-set-2016/3oyq/3oyq_pocket.pdb
REMARK  165 active torsions:
REMARK  status: ('A' for Active; 'I' for Inactive)
REMARK    1  A    between atoms: _1  and  _3
REMARK    2  A    between atoms: _3  and  _4
REMARK    3  A    between atoms: _3  and  _6
REMARK    4  A    between atoms: _6  and  _7
REMARK    5  A    between atoms: _17  and  _19
REMARK    6  A    between atoms: _19  and  _20
REMARK    7  A    between atoms: _19  and  _22
REMARK    8  A    between atoms: _22  and  _23
REMARK    9  A    between atoms: _28  and  _29
REMARK   10  A    between atoms: _31  and  _33
REMARK   11  A    between atoms: _33  and  _34
REMARK   12  A    between atoms: _33  and  _36
REMARK   13  A    between atoms: _36  and  _37
REMARK   14  A    between atoms: _43  and  _45
REMARK   15  A    between atoms: _45  and  _46
REMARK   16  A    between atoms: _45  and  _48
REMARK   17  A    between atoms: _48  and  _49
REMARK   18  A    between atoms: _52  and  _53
REMARK   19  A    between atoms: _58  and  _60
REMARK   20  A    between atoms: _60  and  _61
REMARK   21  A    between atoms: _60  and  _63
REMARK   22  A    between atoms: _63  and  _64
REMARK   23  A    between atoms: _69  and  _71
REMARK   24  A    between atoms: _71  and  _72
REMARK   25  A    between atoms: _71  and  _74
REMARK   26  A    between atoms: _74  and  _75
REMARK   27  A    between atoms: _80  and  _82
REMARK   28  A    between atoms: _82  and  _83
REMARK   29  A    between atoms: _86  and  _88
REMARK   30  A    between atoms: _88  and  _89
REMARK   31  A    between atoms: _88  and  _91
REMARK   32  A    between atoms: _91  and  _92
REMARK   33  A    between atoms: _97  and  _99
REMARK   34  A    between atoms: _99  and  _100
REMARK   35  A    between atoms: _99  and  _102
REMARK   36  A    between atoms: _102  and  _103
REMARK   37  A    between atoms: _106  and  _108
REMARK   38  A    between atoms: _108  and  _109
REMARK   39  A    between atoms: _108  and  _111
REMARK   40  A    between atoms: _111  and  _112
REMARK   41  A    between atoms: _112  and  _113
REMARK   42  A    between atoms: _118  and  _120
REMARK   43  A    between atoms: _120  and  _121
REMARK   44  A    between atoms: _120  and  _123
REMARK   45  A    between atoms: _123  and  _124
REMARK   46  A    between atoms: _130  and  _132
REMARK   47  A    between atoms: _143  and  _146
REMARK   48  A    between atoms: _146  and  _147
REMARK   49  A    between atoms: _155  and  _156
REMARK   50  A    between atoms: _164  and  _166
REMARK   51  A    between atoms: _166  and  _167
REMARK   52  A    between atoms: _166  and  _169
REMARK   53  A    between atoms: _169  and  _170
REMARK   54  A    between atoms: _170  and  _171
REMARK   55  A    between atoms: _174  and  _176
REMARK   56  A    between atoms: _176  and  _177
REMARK   57  A    between atoms: _176  and  _179
REMARK   58  A    between atoms: _179  and  _180
REMARK   59  A    between atoms: _185  and  _187
REMARK   60  A    between atoms: _187  and  _188
REMARK   61  A    between atoms: _187  and  _190
REMARK   62  A    between atoms: _190  and  _191
REMARK   63  A    between atoms: _191  and  _192
REMARK   64  A    between atoms: _195  and  _197
REMARK   65  A    between atoms: _197  and  _198
REMARK   66  A    between atoms: _197  and  _200
REMARK   67  A    between atoms: _200  and  _201
REMARK   68  A    between atoms: _204  and  _206
REMARK   69  A    between atoms: _206  and  _207
REMARK   70  A    between atoms: _206  and  _209
REMARK   71  A    between atoms: _209  and  _210
REMARK   72  A    between atoms: _211  and  ZN_456
REMARK   73  A    between atoms: _215  and  _217
REMARK   74  A    between atoms: _217  and  _218
REMARK   75  A    between atoms: _217  and  _220
REMARK   76  A    between atoms: _220  and  _221
REMARK   77  A    between atoms: _224  and  _226
REMARK   78  A    between atoms: _226  and  _227
REMARK   79  A    between atoms: _226  and  _229
REMARK   80  A    between atoms: _232  and  _234
REMARK   81  A    between atoms: _234  and  _235
REMARK   82  A    between atoms: _234  and  _237
REMARK   83  A    between atoms: _237  and  _238
REMARK   84  A    between atoms: _243  and  _245
REMARK   85  A    between atoms: _245  and  _246
REMARK   86  A    between atoms: _245  and  _248
REMARK   87  A    between atoms: _248  and  _249
REMARK   88  A    between atoms: _255  and  _257
REMARK   89  A    between atoms: _257  and  _258
REMARK   90  A    between atoms: _260  and  _262
REMARK   91  A    between atoms: _262  and  _263
REMARK   92  A    between atoms: _262  and  _265
REMARK   93  A    between atoms: _265  and  _266
REMARK   94  A    between atoms: _266  and  _267
REMARK   95  A    between atoms: _267  and  _268
REMARK   96  A    between atoms: _268  and  _269
REMARK   97  A    between atoms: _273  and  _275
REMARK   98  A    between atoms: _275  and  _276
REMARK   99  A    between atoms: _275  and  _278
REMARK  100  A    between atoms: _281  and  _283
REMARK  101  A    between atoms: _283  and  _284
REMARK  102  A    between atoms: _283  and  _286
REMARK  103  A    between atoms: _286  and  _287
REMARK  104  A    between atoms: _287  and  _288
REMARK  105  A    between atoms: _293  and  _295
REMARK  106  A    between atoms: _295  and  _296
REMARK  107  A    between atoms: _295  and  _298
REMARK  108  A    between atoms: _298  and  _299
REMARK  109  A    between atoms: _302  and  _304
REMARK  110  A    between atoms: _304  and  _305
REMARK  111  A    between atoms: _308  and  _310
REMARK  112  A    between atoms: _310  and  _311
REMARK  113  A    between atoms: _310  and  _313
REMARK  114  A    between atoms: _316  and  _318
REMARK  115  A    between atoms: _318  and  _319
REMARK  116  A    between atoms: _318  and  _321
REMARK  117  A    between atoms: _321  and  _322
REMARK  118  A    between atoms: _325  and  _327
REMARK  119  A    between atoms: _327  and  _328
REMARK  120  A    between atoms: _330  and  _332
REMARK  121  A    between atoms: _332  and  _333
REMARK  122  A    between atoms: _332  and  _335
REMARK  123  A    between atoms: _335  and  _336
REMARK  124  A    between atoms: _338  and  _340
REMARK  125  A    between atoms: _340  and  _341
REMARK  126  A    between atoms: _340  and  _343
REMARK  127  A    between atoms: _343  and  _344
REMARK  128  A    between atoms: _347  and  _349
REMARK  129  A    between atoms: _349  and  _350
REMARK  130  A    between atoms: _349  and  _352
REMARK  131  A    between atoms: _352  and  _353
REMARK  132  A    between atoms: _356  and  _358
REMARK  133  A    between atoms: _358  and  _359
REMARK  134  A    between atoms: _358  and  _361
REMARK  135  A    between atoms: _361  and  _362
REMARK  136  A    between atoms: _366  and  _367
REMARK  137  A    between atoms: _373  and  _374
REMARK  138  A    between atoms: _379  and  _381
REMARK  139  A    between atoms: _381  and  _382
REMARK  140  A    between atoms: _381  and  _384
REMARK  141  A    between atoms: _384  and  _385
REMARK  142  A    between atoms: _388  and  _390
REMARK  143  A    between atoms: _390  and  _391
REMARK  144  A    between atoms: _390  and  _393
REMARK  145  A    between atoms: _393  and  _394
REMARK  146  A    between atoms: _397  and  _399
REMARK  147  A    between atoms: _399  and  _400
REMARK  148  A    between atoms: _399  and  _402
REMARK  149  A    between atoms: _404  and  _406
REMARK  150  A    between atoms: _406  and  _407
REMARK  151  A    between atoms: _406  and  _409
REMARK  152  A    between atoms: _412  and  _414
REMARK  153  A    between atoms: _414  and  _415
REMARK  154  A    between atoms: _414  and  _417
REMARK  155  A    between atoms: _417  and  _418
REMARK  156  A    between atoms: _428  and  _430
REMARK  157  A    between atoms: _430  and  _431
REMARK  158  A    between atoms: _430  and  _433
REMARK  159  A    between atoms: _433  and  _434
REMARK  160  A    between atoms: _439  and  _441
REMARK  161  A    between atoms: _441  and  _442
REMARK  162  A    between atoms: _441  and  _444
REMARK  163  A    between atoms: _444  and  _445
REMARK  164  A    between atoms: _445  and  _446
REMARK  165  A    between atoms: _446  and  _447
REMARK                            x       y       z     vdW  Elec       q    Type
REMARK                         _______ _______ _______ _____ _____    ______ ____
ROOT
ATOM      1  C   CYS A   1      -5.944   7.584  23.903  0.00  0.00    +0.239 C 
ATOM      2  N   VAL A   2      -6.095   6.289  24.198  0.00  0.00    -0.298 N 
ATOM      3  H   VAL A   2      -5.315   5.774  24.655  0.00  0.00    +0.150 HD
ATOM      4  O   CYS A   1      -6.875   8.301  23.596  0.00  0.00    -0.274 OA
ENDROOT
BRANCH   1   5
ATOM      5  CA  CYS A   1      -4.587   8.212  24.029  0.00  0.00    +0.156 C 
BRANCH   5   6
ATOM      6  N   CYS A   1      -3.530   7.227  24.217  0.00  0.00    -0.237 NA
ATOM      7  H   CYS A   1      -3.463   6.434  23.548  0.00  0.00    +0.142 HD
ENDBRANCH   5   6
BRANCH   5   8
ATOM      8  CB  CYS A   1      -4.311   9.047  22.775  0.00  0.00    +0.095 C 
ATOM      9  SG  CYS A   1      -4.248   8.075  21.259  0.00  0.00    -0.080 S 
ENDBRANCH   5   8
ENDBRANCH   1   5
BRANCH   2  10
ATOM     10  CA  VAL A   2      -7.334   5.586  23.890  0.00  0.00    +0.137 C 
BRANCH  10  11
ATOM     11  CB  VAL A   2      -7.050   4.325  23.032  0.00  0.00    +0.026 C 
ATOM     12  CG2 VAL A   2      -8.361   3.635  22.689  0.00  0.00    +0.002 C 
ATOM     13  CG1 VAL A   2      -6.279   4.687  21.759  0.00  0.00    +0.002 C 
ENDBRANCH  10  11
BRANCH  10  14
ATOM     14  C   VAL A   2      -8.103   5.100  25.105  0.00  0.00    +0.227 C 
ATOM     15  O   VAL A   2      -7.532   4.440  25.972  0.00  0.00    -0.286 OA
ENDBRANCH  10  14
ENDBRANCH   2  10
TORSDOF 6
REMARK  Name = ../refined-set-2016/3oyq/3oyq_pocket.pdb
REMARK  165 active torsions:
REMARK  status: ('A' for Active; 'I' for Inactive)
REMARK    1  A    between atoms: _1  and  _3
REMARK    2  A    between atoms: _3  and  _4
REMARK    3  A    between atoms: _3  and  _6
REMARK    4  A    between atoms: _6  and  _7
REMARK    5  A    between atoms: _17  and  _19
REMARK    6  A    between atoms: _19  and  _20
REMARK    7  A    between atoms: _19  and  _22
REMARK    8  A    between atoms: _22  and  _23
REMARK    9  A    between atoms: _28  and  _29
REMARK   10  A    between atoms: _31  and  _33
REMARK   11  A    between atoms: _33  and  _34
REMARK   12  A    between atoms: _33  and  _36
REMARK   13  A    between atoms: _36  and  _37
REMARK   14  A    between atoms: _43  and  _45
REMARK   15  A    between atoms: _45  and  _46
REMARK   16  A    between atoms: _45  and  _48
REMARK   17  A    between atoms: _48  and  _49
REMARK   18  A    between atoms: _52  and  _53
REMARK   19  A    between atoms: _58  and  _60
REMARK   20  A    between atoms: _60  and  _61
REMARK   21  A    between atoms: _60  and  _63
REMARK   22  A    between atoms: _63  and  _64
REMARK   23  A    between atoms: _69  and  _71
REMARK   24  A    between atoms: _71  and  _72
REMARK   25  A    between atoms: _71  and  _74
REMARK   26  A    between atoms: _74  and  _75
REMARK   27  A    between atoms: _80  and  _82
REMARK   28  A    between atoms: _82  and  _83
REMARK   29  A    between atoms: _86  and  _88
REMARK   30  A    between atoms: _88  and  _89
REMARK   31  A    between atoms: _88  and  _91
REMARK   32  A    between atoms: _91  and  _92
REMARK   33  A    between atoms: _97  and  _99
REMARK   34  A    between atoms: _99  and  _100
REMARK   35  A    between atoms: _99  and  _102
REMARK   36  A    between atoms: _102  and  _103
REMARK   37  A    between atoms: _106  and  _108
REMARK   38  A    between atoms: _108  and  _109
REMARK   39  A    between atoms: _108  and  _111
REMARK   40  A    between atoms: _111  and  _112
REMARK   41  A    between atoms: _112  and  _113
REMARK   42  A    between atoms: _118  and  _120
REMARK   43  A    between atoms: _120  and  _121
REMARK   44  A    between atoms: _120  and  _123
REMARK   45  A    between atoms: _123  and  _124
REMARK   46  A    between atoms: _130  and  _132
REMARK   47  A    between atoms: _143  and  _146
REMARK   48  A    between atoms: _146  and  _147
REMARK   49  A    between atoms: _155  and  _156
REMARK   50  A    between atoms: _164  and  _166
REMARK   51  A    between atoms: _166  and  _167
REMARK   52  A    between atoms: _166  and  _169
REMARK   53  A    between atoms: _169  and  _170
REMARK   54  A    between atoms: _170  and  _171
REMARK   55  A    between atoms: _174  and  _176
REMARK   56  A    between atoms: _176  and  _177
REMARK   57  A    between atoms: _176  and  _179
REMARK   58  A    between atoms: _179  and  _180
REMARK   59  A    between atoms: _185  and  _187
REMARK   60  A    between atoms: _187  and  _188
REMARK   61  A    between atoms: _187  and  _190
REMARK   62  A    between atoms: _190  and  _191
REMARK   63  A    between atoms: _191  and  _192
REMARK   64  A    between atoms: _195  and  _197
REMARK   65  A    between atoms: _197  and  _198
REMARK   66  A    between atoms: _197  and  _200
REMARK   67  A    between atoms: _200  and  _201
REMARK   68  A    between atoms: _204  and  _206
REMARK   69  A    between atoms: _206  and  _207
REMARK   70  A    between atoms: _206  and  _209
REMARK   71  A    between atoms: _209  and  _210
REMARK   72  A    between atoms: _211  and  ZN_456
REMARK   73  A    between atoms: _215  and  _217
REMARK   74  A    between atoms: _217  and  _218
REMARK   75  A    between atoms: _217  and  _220
REMARK   76  A    between atoms: _220  and  _221
REMARK   77  A    between atoms: _224  and  _226
REMARK   78  A    between atoms: _226  and  _227
REMARK   79  A    between atoms: _226  and  _229
REMARK   80  A    between atoms: _232  and  _234
REMARK   81  A    between atoms: _234  and  _235
REMARK   82  A    between atoms: _234  and  _237
REMARK   83  A    between atoms: _237  and  _238
REMARK   84  A    between atoms: _243  and  _245
REMARK   85  A    between atoms: _245  and  _246
REMARK   86  A    between atoms: _245  and  _248
REMARK   87  A    between atoms: _248  and  _249
REMARK   88  A    between atoms: _255  and  _257
REMARK   89  A    between atoms: _257  and  _258
REMARK   90  A    between atoms: _260  and  _262
REMARK   91  A    between atoms: _262  and  _263
REMARK   92  A    between atoms: _262  and  _265
REMARK   93  A    between atoms: _265  and  _266
REMARK   94  A    between atoms: _266  and  _267
REMARK   95  A    between atoms: _267  and  _268
REMARK   96  A    between atoms: _268  and  _269
REMARK   97  A    between atoms: _273  and  _275
REMARK   98  A    between atoms: _275  and  _276
REMARK   99  A    between atoms: _275  and  _278
REMARK  100  A    between atoms: _281  and  _283
REMARK  101  A    between atoms: _283  and  _284
REMARK  102  A    between atoms: _283  and  _286
REMARK  103  A    between atoms: _286  and  _287
REMARK  104  A    between atoms: _287  and  _288
REMARK  105  A    between atoms: _293  and  _295
REMARK  106  A    between atoms: _295  and  _296
REMARK  107  A    between atoms: _295  and  _298
REMARK  108  A    between atoms: _298  and  _299
REMARK  109  A    between atoms: _302  and  _304
REMARK  110  A    between atoms: _304  and  _305
REMARK  111  A    between atoms: _308  and  _310
REMARK  112  A    between atoms: _310  and  _311
REMARK  113  A    between atoms: _310  and  _313
REMARK  114  A    between atoms: _316  and  _318
REMARK  115  A    between atoms: _318  and  _319
REMARK  116  A    between atoms: _318  and  _321
REMARK  117  A    between atoms: _321  and  _322
REMARK  118  A    between atoms: _325  and  _327
REMARK  119  A    between atoms: _327  and  _328
REMARK  120  A    between atoms: _330  and  _332
REMARK  121  A    between atoms: _332  and  _333
REMARK  122  A    between atoms: _332  and  _335
REMARK  123  A    between atoms: _335  and  _336
REMARK  124  A    between atoms: _338  and  _340
REMARK  125  A    between atoms: _340  and  _341
REMARK  126  A    between atoms: _340  and  _343
REMARK  127  A    between atoms: _343  and  _344
REMARK  128  A    between atoms: _347  and  _349
REMARK  129  A    between atoms: _349  and  _350
REMARK  130  A    between atoms: _349  and  _352
REMARK  131  A    between atoms: _352  and  _353
REMARK  132  A    between atoms: _356  and  _358
REMARK  133  A    between atoms: _358  and  _359
REMARK  134  A    between atoms: _358  and  _361
REMARK  135  A    between atoms: _361  and  _362
REMARK  136  A    between atoms: _366  and  _367
REMARK  137  A    between atoms: _373  and  _374
REMARK  138  A    between atoms: _379  and  _381
REMARK  139  A    between atoms: _381  and  _382
REMARK  140  A    between atoms: _381  and  _384
REMARK  141  A    between atoms: _384  and  _385
REMARK  142  A    between atoms: _388  and  _390
REMARK  143  A    between atoms: _390  and  _391
REMARK  144  A    between atoms: _390  and  _393
REMARK  145  A    between atoms: _393  and  _394
REMARK  146  A    between atoms: _397  and  _399
REMARK  147  A    between atoms: _399  and  _400
REMARK  148  A    between atoms: _399  and  _402
REMARK  149  A    between atoms: _404  and  _406
REMARK  150  A    between atoms: _406  and  _407
REMARK  151  A    between atoms: _406  and  _409
REMARK  152  A    between atoms: _412  and  _414
REMARK  153  A    between atoms: _414  and  _415
REMARK  154  A    between atoms: _414  and  _417
REMARK  155  A    between atoms: _417  and  _418
REMARK  156  A    between atoms: _428  and  _430
REMARK  157  A    between atoms: _430  and  _431
REMARK  158  A    between atoms: _430  and  _433
REMARK  159  A    between atoms: _433  and  _434
REMARK  160  A    between atoms: _439  and  _441
REMARK  161  A    between atoms: _441  and  _442
REMARK  162  A    between atoms: _441  and  _444
REMARK  163  A    between atoms: _444  and  _445
REMARK  164  A    between atoms: _445  and  _446
REMARK  165  A    between atoms: _446  and  _447
REMARK                            x       y       z     vdW  Elec       q    Type
REMARK                         _______ _______ _______ _____ _____    ______ ____
ROOT
ATOM      1  CG  TRP A   1      -8.810   0.096  24.141  0.00  0.00    -0.002 A 
ATOM      2  CD1 TRP A   1      -7.593   0.687  24.337  0.00  0.00    +0.068 A 
ATOM      3  NE1 TRP A   1      -6.887   0.685  23.173  0.00  0.00    -0.352 N 
ATOM      4  HE1 TRP A   1      -5.939   1.093  23.046  0.00  0.00    +0.166 HD
ATOM      5  CE2 TRP A   1      -7.620   0.060  22.189  0.00  0.00    +0.056 A 
ATOM      6  CZ2 TRP A   1      -7.336  -0.178  20.855  0.00  0.00    +0.017 A 
ATOM      7  CH2 TRP A   1      -8.299  -0.831  20.104  0.00  0.00    +0.001 A 
ATOM      8  CZ3 TRP A   1      -9.527  -1.224  20.671  0.00  0.00    +0.000 A 
ATOM      9  CE3 TRP A   1      -9.819  -0.950  21.972  0.00  0.00    +0.001 A 
ATOM     10  CD2 TRP A   1      -8.847  -0.310  22.770  0.00  0.00    +0.013 A 
ENDROOT
BRANCH   1  11
ATOM     11  CB  TRP A   1      -9.911  -0.026  25.129  0.00  0.00    +0.053 C 
BRANCH  11  12
ATOM     12  CA  TRP A   1     -10.930   1.132  24.941  0.00  0.00    +0.137 C 
BRANCH  12  13
ATOM     13  N   TRP A   1     -10.454   2.328  25.620  0.00  0.00    -0.239 NA
ATOM     14  H   TRP A   1      -9.807   2.237  26.429  0.00  0.00    +0.142 HD
ENDBRANCH  12  13
BRANCH  12  15
ATOM     15  C   TRP A   1     -12.284   0.714  25.469  0.00  0.00    +0.224 C 
ATOM     16  O   TRP A   1     -12.508   0.657  26.657  0.00  0.00    -0.287 OA
ENDBRANCH  12  15
ENDBRANCH  11  12
ENDBRANCH   1  11
TORSDOF 4
REMARK  Name = ../refined-set-2016/3oyq/3oyq_pocket.pdb
REMARK  165 active torsions:
REMARK  status: ('A' for Active; 'I' for Inactive)
REMARK    1  A    between atoms: _1  and  _3
REMARK    2  A    between atoms: _3  and  _4
REMARK    3  A    between atoms: _3  and  _6
REMARK    4  A    between atoms: _6  and  _7
REMARK    5  A    between atoms: _17  and  _19
REMARK    6  A    between atoms: _19  and  _20
REMARK    7  A    between atoms: _19  and  _22
REMARK    8  A    between atoms: _22  and  _23
REMARK    9  A    between atoms: _28  and  _29
REMARK   10  A    between atoms: _31  and  _33
REMARK   11  A    between atoms: _33  and  _34
REMARK   12  A    between atoms: _33  and  _36
REMARK   13  A    between atoms: _36  and  _37
REMARK   14  A    between atoms: _43  and  _45
REMARK   15  A    between atoms: _45  and  _46
REMARK   16  A    between atoms: _45  and  _48
REMARK   17  A    between atoms: _48  and  _49
REMARK   18  A    between atoms: _52  and  _53
REMARK   19  A    between atoms: _58  and  _60
REMARK   20  A    between atoms: _60  and  _61
REMARK   21  A    between atoms: _60  and  _63
REMARK   22  A    between atoms: _63  and  _64
REMARK   23  A    between atoms: _69  and  _71
REMARK   24  A    between atoms: _71  and  _72
REMARK   25  A    between atoms: _71  and  _74
REMARK   26  A    between atoms: _74  and  _75
REMARK   27  A    between atoms: _80  and  _82
REMARK   28  A    between atoms: _82  and  _83
REMARK   29  A    between atoms: _86  and  _88
REMARK   30  A    between atoms: _88  and  _89
REMARK   31  A    between atoms: _88  and  _91
REMARK   32  A    between atoms: _91  and  _92
REMARK   33  A    between atoms: _97  and  _99
REMARK   34  A    between atoms: _99  and  _100
REMARK   35  A    between atoms: _99  and  _102
REMARK   36  A    between atoms: _102  and  _103
REMARK   37  A    between atoms: _106  and  _108
REMARK   38  A    between atoms: _108  and  _109
REMARK   39  A    between atoms: _108  and  _111
REMARK   40  A    between atoms: _111  and  _112
REMARK   41  A    between atoms: _112  and  _113
REMARK   42  A    between atoms: _118  and  _120
REMARK   43  A    between atoms: _120  and  _121
REMARK   44  A    between atoms: _120  and  _123
REMARK   45  A    between atoms: _123  and  _124
REMARK   46  A    between atoms: _130  and  _132
REMARK   47  A    between atoms: _143  and  _146
REMARK   48  A    between atoms: _146  and  _147
REMARK   49  A    between atoms: _155  and  _156
REMARK   50  A    between atoms: _164  and  _166
REMARK   51  A    between atoms: _166  and  _167
REMARK   52  A    between atoms: _166  and  _169
REMARK   53  A    between atoms: _169  and  _170
REMARK   54  A    between atoms: _170  and  _171
REMARK   55  A    between atoms: _174  and  _176
REMARK   56  A    between atoms: _176  and  _177
REMARK   57  A    between atoms: _176  and  _179
REMARK   58  A    between atoms: _179  and  _180
REMARK   59  A    between atoms: _185  and  _187
REMARK   60  A    between atoms: _187  and  _188
REMARK   61  A    between atoms: _187  and  _190
REMARK   62  A    between atoms: _190  and  _191
REMARK   63  A    between atoms: _191  and  _192
REMARK   64  A    between atoms: _195  and  _197
REMARK   65  A    between atoms: _197  and  _198
REMARK   66  A    between atoms: _197  and  _200
REMARK   67  A    between atoms: _200  and  _201
REMARK   68  A    between atoms: _204  and  _206
REMARK   69  A    between atoms: _206  and  _207
REMARK   70  A    between atoms: _206  and  _209
REMARK   71  A    between atoms: _209  and  _210
REMARK   72  A    between atoms: _211  and  ZN_456
REMARK   73  A    between atoms: _215  and  _217
REMARK   74  A    between atoms: _217  and  _218
REMARK   75  A    between atoms: _217  and  _220
REMARK   76  A    between atoms: _220  and  _221
REMARK   77  A    between atoms: _224  and  _226
REMARK   78  A    between atoms: _226  and  _227
REMARK   79  A    between atoms: _226  and  _229
REMARK   80  A    between atoms: _232  and  _234
REMARK   81  A    between atoms: _234  and  _235
REMARK   82  A    between atoms: _234  and  _237
REMARK   83  A    between atoms: _237  and  _238
REMARK   84  A    between atoms: _243  and  _245
REMARK   85  A    between atoms: _245  and  _246
REMARK   86  A    between atoms: _245  and  _248
REMARK   87  A    between atoms: _248  and  _249
REMARK   88  A    between atoms: _255  and  _257
REMARK   89  A    between atoms: _257  and  _258
REMARK   90  A    between atoms: _260  and  _262
REMARK   91  A    between atoms: _262  and  _263
REMARK   92  A    between atoms: _262  and  _265
REMARK   93  A    between atoms: _265  and  _266
REMARK   94  A    between atoms: _266  and  _267
REMARK   95  A    between atoms: _267  and  _268
REMARK   96  A    between atoms: _268  and  _269
REMARK   97  A    between atoms: _273  and  _275
REMARK   98  A    between atoms: _275  and  _276
REMARK   99  A    between atoms: _275  and  _278
REMARK  100  A    between atoms: _281  and  _283
REMARK  101  A    between atoms: _283  and  _284
REMARK  102  A    between atoms: _283  and  _286
REMARK  103  A    between atoms: _286  and  _287
REMARK  104  A    between atoms: _287  and  _288
REMARK  105  A    between atoms: _293  and  _295
REMARK  106  A    between atoms: _295  and  _296
REMARK  107  A    between atoms: _295  and  _298
REMARK  108  A    between atoms: _298  and  _299
REMARK  109  A    between atoms: _302  and  _304
REMARK  110  A    between atoms: _304  and  _305
REMARK  111  A    between atoms: _308  and  _310
REMARK  112  A    between atoms: _310  and  _311
REMARK  113  A    between atoms: _310  and  _313
REMARK  114  A    between atoms: _316  and  _318
REMARK  115  A    between atoms: _318  and  _319
REMARK  116  A    between atoms: _318  and  _321
REMARK  117  A    between atoms: _321  and  _322
REMARK  118  A    between atoms: _325  and  _327
REMARK  119  A    between atoms: _327  and  _328
REMARK  120  A    between atoms: _330  and  _332
REMARK  121  A    between atoms: _332  and  _333
REMARK  122  A    between atoms: _332  and  _335
REMARK  123  A    between atoms: _335  and  _336
REMARK  124  A    between atoms: _338  and  _340
REMARK  125  A    between atoms: _340  and  _341
REMARK  126  A    between atoms: _340  and  _343
REMARK  127  A    between atoms: _343  and  _344
REMARK  128  A    between atoms: _347  and  _349
REMARK  129  A    between atoms: _349  and  _350
REMARK  130  A    between atoms: _349  and  _352
REMARK  131  A    between atoms: _352  and  _353
REMARK  132  A    between atoms: _356  and  _358
REMARK  133  A    between atoms: _358  and  _359
REMARK  134  A    between atoms: _358  and  _361
REMARK  135  A    between atoms: _361  and  _362
REMARK  136  A    between atoms: _366  and  _367
REMARK  137  A    between atoms: _373  and  _374
REMARK  138  A    between atoms: _379  and  _381
REMARK  139  A    between atoms: _381  and  _382
REMARK  140  A    between atoms: _381  and  _384
REMARK  141  A    between atoms: _384  and  _385
REMARK  142  A    between atoms: _388  and  _390
REMARK  143  A    between atoms: _390  and  _391
REMARK  144  A    between atoms: _390  and  _393
REMARK  145  A    between atoms: _393  and  _394
REMARK  146  A    between atoms: _397  and  _399
REMARK  147  A    between atoms: _399  and  _400
REMARK  148  A    between atoms: _399  and  _402
REMARK  149  A    between atoms: _404  and  _406
REMARK  150  A    between atoms: _406  and  _407
REMARK  151  A    between atoms: _406  and  _409
REMARK  152  A    between atoms: _412  and  _414
REMARK  153  A    between atoms: _414  and  _415
REMARK  154  A    between atoms: _414  and  _417
REMARK  155  A    between atoms: _417  and  _418
REMARK  156  A    between atoms: _428  and  _430
REMARK  157  A    between atoms: _430  and  _431
REMARK  158  A    between atoms: _430  and  _433
REMARK  159  A    between atoms: _433  and  _434
REMARK  160  A    between atoms: _439  and  _441
REMARK  161  A    between atoms: _441  and  _442
REMARK  162  A    between atoms: _441  and  _444
REMARK  163  A    between atoms: _444  and  _445
REMARK  164  A    between atoms: _445  and  _446
REMARK  165  A    between atoms: _446  and  _447
REMARK                            x       y       z     vdW  Elec       q    Type
REMARK                         _______ _______ _______ _____ _____    ______ ____
ROOT
ATOM      1  CB  ASN A   1      -2.013  -7.186  10.359  0.00  0.00    +0.110 C 
ENDROOT
BRANCH   1   2
ATOM      2  CG  ASN A   1      -3.532  -7.298  10.211  0.00  0.00    +0.221 C 
ATOM      3  OD1 ASN A   1      -4.167  -8.205  10.752  0.00  0.00    -0.275 OA
ATOM      4  ND2 ASN A   1      -4.133  -6.354   9.472  0.00  0.00    -0.329 N 
ATOM      5 HD21 ASN A   1      -5.165  -6.374   9.342  0.00  0.00    +0.145 HD
ATOM      6 HD22 ASN A   1      -3.567  -5.602   9.029  0.00  0.00    +0.145 HD
ENDBRANCH   1   2
BRANCH   1   7
ATOM      7  CA  ASN A   1      -1.464  -8.057  11.489  0.00  0.00    +0.142 C 
BRANCH   7   8
ATOM      8  N   ASN A   1      -1.749  -9.483  11.258  0.00  0.00    -0.239 NA
ATOM      9  H   ASN A   1      -2.672  -9.754  10.861  0.00  0.00    +0.142 HD
ENDBRANCH   7   8
BRANCH   7  10
ATOM     10  C   ASN A   1      -2.008  -7.621  12.842  0.00  0.00    +0.225 C 
ATOM     11  O   ASN A   1      -2.637  -6.559  12.953  0.00  0.00    -0.287 OA
ENDBRANCH   7  10
ENDBRANCH   1   7
TORSDOF 4
REMARK  Name = ../refined-set-2016/3oyq/3oyq_pocket.pdb
REMARK  165 active torsions:
REMARK  status: ('A' for Active; 'I' for Inactive)
REMARK    1  A    between atoms: _1  and  _3
REMARK    2  A    between atoms: _3  and  _4
REMARK    3  A    between atoms: _3  and  _6
REMARK    4  A    between atoms: _6  and  _7
REMARK    5  A    between atoms: _17  and  _19
REMARK    6  A    between atoms: _19  and  _20
REMARK    7  A    between atoms: _19  and  _22
REMARK    8  A    between atoms: _22  and  _23
REMARK    9  A    between atoms: _28  and  _29
REMARK   10  A    between atoms: _31  and  _33
REMARK   11  A    between atoms: _33  and  _34
REMARK   12  A    between atoms: _33  and  _36
REMARK   13  A    between atoms: _36  and  _37
REMARK   14  A    between atoms: _43  and  _45
REMARK   15  A    between atoms: _45  and  _46
REMARK   16  A    between atoms: _45  and  _48
REMARK   17  A    between atoms: _48  and  _49
REMARK   18  A    between atoms: _52  and  _53
REMARK   19  A    between atoms: _58  and  _60
REMARK   20  A    between atoms: _60  and  _61
REMARK   21  A    between atoms: _60  and  _63
REMARK   22  A    between atoms: _63  and  _64
REMARK   23  A    between atoms: _69  and  _71
REMARK   24  A    between atoms: _71  and  _72
REMARK   25  A    between atoms: _71  and  _74
REMARK   26  A    between atoms: _74  and  _75
REMARK   27  A    between atoms: _80  and  _82
REMARK   28  A    between atoms: _82  and  _83
REMARK   29  A    between atoms: _86  and  _88
REMARK   30  A    between atoms: _88  and  _89
REMARK   31  A    between atoms: _88  and  _91
REMARK   32  A    between atoms: _91  and  _92
REMARK   33  A    between atoms: _97  and  _99
REMARK   34  A    between atoms: _99  and  _100
REMARK   35  A    between atoms: _99  and  _102
REMARK   36  A    between atoms: _102  and  _103
REMARK   37  A    between atoms: _106  and  _108
REMARK   38  A    between atoms: _108  and  _109
REMARK   39  A    between atoms: _108  and  _111
REMARK   40  A    between atoms: _111  and  _112
REMARK   41  A    between atoms: _112  and  _113
REMARK   42  A    between atoms: _118  and  _120
REMARK   43  A    between atoms: _120  and  _121
REMARK   44  A    between atoms: _120  and  _123
REMARK   45  A    between atoms: _123  and  _124
REMARK   46  A    between atoms: _130  and  _132
REMARK   47  A    between atoms: _143  and  _146
REMARK   48  A    between atoms: _146  and  _147
REMARK   49  A    between atoms: _155  and  _156
REMARK   50  A    between atoms: _164  and  _166
REMARK   51  A    between atoms: _166  and  _167
REMARK   52  A    between atoms: _166  and  _169
REMARK   53  A    between atoms: _169  and  _170
REMARK   54  A    between atoms: _170  and  _171
REMARK   55  A    between atoms: _174  and  _176
REMARK   56  A    between atoms: _176  and  _177
REMARK   57  A    between atoms: _176  and  _179
REMARK   58  A    between atoms: _179  and  _180
REMARK   59  A    between atoms: _185  and  _187
REMARK   60  A    between atoms: _187  and  _188
REMARK   61  A    between atoms: _187  and  _190
REMARK   62  A    between atoms: _190  and  _191
REMARK   63  A    between atoms: _191  and  _192
REMARK   64  A    between atoms: _195  and  _197
REMARK   65  A    between atoms: _197  and  _198
REMARK   66  A    between atoms: _197  and  _200
REMARK   67  A    between atoms: _200  and  _201
REMARK   68  A    between atoms: _204  and  _206
REMARK   69  A    between atoms: _206  and  _207
REMARK   70  A    between atoms: _206  and  _209
REMARK   71  A    between atoms: _209  and  _210
REMARK   72  A    between atoms: _211  and  ZN_456
REMARK   73  A    between atoms: _215  and  _217
REMARK   74  A    between atoms: _217  and  _218
REMARK   75  A    between atoms: _217  and  _220
REMARK   76  A    between atoms: _220  and  _221
REMARK   77  A    between atoms: _224  and  _226
REMARK   78  A    between atoms: _226  and  _227
REMARK   79  A    between atoms: _226  and  _229
REMARK   80  A    between atoms: _232  and  _234
REMARK   81  A    between atoms: _234  and  _235
REMARK   82  A    between atoms: _234  and  _237
REMARK   83  A    between atoms: _237  and  _238
REMARK   84  A    between atoms: _243  and  _245
REMARK   85  A    between atoms: _245  and  _246
REMARK   86  A    between atoms: _245  and  _248
REMARK   87  A    between atoms: _248  and  _249
REMARK   88  A    between atoms: _255  and  _257
REMARK   89  A    between atoms: _257  and  _258
REMARK   90  A    between atoms: _260  and  _262
REMARK   91  A    between atoms: _262  and  _263
REMARK   92  A    between atoms: _262  and  _265
REMARK   93  A    between atoms: _265  and  _266
REMARK   94  A    between atoms: _266  and  _267
REMARK   95  A    between atoms: _267  and  _268
REMARK   96  A    between atoms: _268  and  _269
REMARK   97  A    between atoms: _273  and  _275
REMARK   98  A    between atoms: _275  and  _276
REMARK   99  A    between atoms: _275  and  _278
REMARK  100  A    between atoms: _281  and  _283
REMARK  101  A    between atoms: _283  and  _284
REMARK  102  A    between atoms: _283  and  _286
REMARK  103  A    between atoms: _286  and  _287
REMARK  104  A    between atoms: _287  and  _288
REMARK  105  A    between atoms: _293  and  _295
REMARK  106  A    between atoms: _295  and  _296
REMARK  107  A    between atoms: _295  and  _298
REMARK  108  A    between atoms: _298  and  _299
REMARK  109  A    between atoms: _302  and  _304
REMARK  110  A    between atoms: _304  and  _305
REMARK  111  A    between atoms: _308  and  _310
REMARK  112  A    between atoms: _310  and  _311
REMARK  113  A    between atoms: _310  and  _313
REMARK  114  A    between atoms: _316  and  _318
REMARK  115  A    between atoms: _318  and  _319
REMARK  116  A    between atoms: _318  and  _321
REMARK  117  A    between atoms: _321  and  _322
REMARK  118  A    between atoms: _325  and  _327
REMARK  119  A    between atoms: _327  and  _328
REMARK  120  A    between atoms: _330  and  _332
REMARK  121  A    between atoms: _332  and  _333
REMARK  122  A    between atoms: _332  and  _335
REMARK  123  A    between atoms: _335  and  _336
REMARK  124  A    between atoms: _338  and  _340
REMARK  125  A    between atoms: _340  and  _341
REMARK  126  A    between atoms: _340  and  _343
REMARK  127  A    between atoms: _343  and  _344
REMARK  128  A    between atoms: _347  and  _349
REMARK  129  A    between atoms: _349  and  _350
REMARK  130  A    between atoms: _349  and  _352
REMARK  131  A    between atoms: _352  and  _353
REMARK  132  A    between atoms: _356  and  _358
REMARK  133  A    between atoms: _358  and  _359
REMARK  134  A    between atoms: _358  and  _361
REMARK  135  A    between atoms: _361  and  _362
REMARK  136  A    between atoms: _366  and  _367
REMARK  137  A    between atoms: _373  and  _374
REMARK  138  A    between atoms: _379  and  _381
REMARK  139  A    between atoms: _381  and  _382
REMARK  140  A    between atoms: _381  and  _384
REMARK  141  A    between atoms: _384  and  _385
REMARK  142  A    between atoms: _388  and  _390
REMARK  143  A    between atoms: _390  and  _391
REMARK  144  A    between atoms: _390  and  _393
REMARK  145  A    between atoms: _393  and  _394
REMARK  146  A    between atoms: _397  and  _399
REMARK  147  A    between atoms: _399  and  _400
REMARK  148  A    between atoms: _399  and  _402
REMARK  149  A    between atoms: _404  and  _406
REMARK  150  A    between atoms: _406  and  _407
REMARK  151  A    between atoms: _406  and  _409
REMARK  152  A    between atoms: _412  and  _414
REMARK  153  A    between atoms: _414  and  _415
REMARK  154  A    between atoms: _414  and  _417
REMARK  155  A    between atoms: _417  and  _418
REMARK  156  A    between atoms: _428  and  _430
REMARK  157  A    between atoms: _430  and  _431
REMARK  158  A    between atoms: _430  and  _433
REMARK  159  A    between atoms: _433  and  _434
REMARK  160  A    between atoms: _439  and  _441
REMARK  161  A    between atoms: _441  and  _442
REMARK  162  A    between atoms: _441  and  _444
REMARK  163  A    between atoms: _444  and  _445
REMARK  164  A    between atoms: _445  and  _446
REMARK  165  A    between atoms: _446  and  _447
REMARK                            x       y       z     vdW  Elec       q    Type
REMARK                         _______ _______ _______ _____ _____    ______ ____
ROOT
ATOM      1  NE  ARG A   1       2.190  -3.723  21.155  0.00  0.00    +0.330 N 
ATOM      2  CZ  ARG A   1       2.385  -2.703  21.992  0.00  0.00    +0.000 C 
ATOM      3  NH2 ARG A   1       3.620  -2.496  22.456  0.00  0.00    +0.330 N 
ATOM      4 HH21 ARG A   1       3.805  -1.709  23.110  0.00  0.00    +0.000 HD
ATOM      5 HH22 ARG A   1       4.397  -3.122  22.163  0.00  0.00    +0.000 HD
ATOM      6  NH1 ARG A   1       1.388  -1.906  22.371  0.00  0.00    +0.330 N 
ATOM      7 HH11 ARG A   1       1.572  -1.119  23.025  0.00  0.00    +0.000 HD
ATOM      8 HH12 ARG A   1       0.426  -2.071  22.013  0.00  0.00    +0.000 HD
ATOM      9  HE  ARG A   1       3.002  -4.347  20.973  0.00  0.00    +0.000 HD
ENDROOT
BRANCH   1  10
ATOM     10  CD  ARG A   1       0.933  -4.044  20.468  0.00  0.00    +0.000 C 
BRANCH  10  11
ATOM     11  CG  ARG A   1       1.018  -5.399  19.795  0.00  0.00    +0.000 C 
BRANCH  11  12
ATOM     12  CB  ARG A   1      -0.086  -5.617  18.770  0.00  0.00    +0.000 C 
BRANCH  12  13
ATOM     13  CA  ARG A   1      -0.161  -7.072  18.268  0.00  0.00    +0.000 C 
BRANCH  13  14
ATOM     14  N   ARG A   1      -1.091  -7.172  17.156  0.00  0.00    +0.000 NA
ATOM     15  H   ARG A   1      -1.898  -6.517  17.131  0.00  0.00    +0.000 HD
ENDBRANCH  13  14
BRANCH  13  16
ATOM     16  C   ARG A   1      -0.662  -7.981  19.401  0.00  0.00    +0.000 C 
ATOM     17  O   ARG A   1      -1.844  -7.993  19.705  0.00  0.00    +0.000 OA
ENDBRANCH  13  16
ENDBRANCH  12  13
ENDBRANCH  11  12
ENDBRANCH  10  11
ENDBRANCH   1  10
TORSDOF 6
REMARK  Name = ../refined-set-2016/3oyq/3oyq_pocket.pdb
REMARK  165 active torsions:
REMARK  status: ('A' for Active; 'I' for Inactive)
REMARK    1  A    between atoms: _1  and  _3
REMARK    2  A    between atoms: _3  and  _4
REMARK    3  A    between atoms: _3  and  _6
REMARK    4  A    between atoms: _6  and  _7
REMARK    5  A    between atoms: _17  and  _19
REMARK    6  A    between atoms: _19  and  _20
REMARK    7  A    between atoms: _19  and  _22
REMARK    8  A    between atoms: _22  and  _23
REMARK    9  A    between atoms: _28  and  _29
REMARK   10  A    between atoms: _31  and  _33
REMARK   11  A    between atoms: _33  and  _34
REMARK   12  A    between atoms: _33  and  _36
REMARK   13  A    between atoms: _36  and  _37
REMARK   14  A    between atoms: _43  and  _45
REMARK   15  A    between atoms: _45  and  _46
REMARK   16  A    between atoms: _45  and  _48
REMARK   17  A    between atoms: _48  and  _49
REMARK   18  A    between atoms: _52  and  _53
REMARK   19  A    between atoms: _58  and  _60
REMARK   20  A    between atoms: _60  and  _61
REMARK   21  A    between atoms: _60  and  _63
REMARK   22  A    between atoms: _63  and  _64
REMARK   23  A    between atoms: _69  and  _71
REMARK   24  A    between atoms: _71  and  _72
REMARK   25  A    between atoms: _71  and  _74
REMARK   26  A    between atoms: _74  and  _75
REMARK   27  A    between atoms: _80  and  _82
REMARK   28  A    between atoms: _82  and  _83
REMARK   29  A    between atoms: _86  and  _88
REMARK   30  A    between atoms: _88  and  _89
REMARK   31  A    between atoms: _88  and  _91
REMARK   32  A    between atoms: _91  and  _92
REMARK   33  A    between atoms: _97  and  _99
REMARK   34  A    between atoms: _99  and  _100
REMARK   35  A    between atoms: _99  and  _102
REMARK   36  A    between atoms: _102  and  _103
REMARK   37  A    between atoms: _106  and  _108
REMARK   38  A    between atoms: _108  and  _109
REMARK   39  A    between atoms: _108  and  _111
REMARK   40  A    between atoms: _111  and  _112
REMARK   41  A    between atoms: _112  and  _113
REMARK   42  A    between atoms: _118  and  _120
REMARK   43  A    between atoms: _120  and  _121
REMARK   44  A    between atoms: _120  and  _123
REMARK   45  A    between atoms: _123  and  _124
REMARK   46  A    between atoms: _130  and  _132
REMARK   47  A    between atoms: _143  and  _146
REMARK   48  A    between atoms: _146  and  _147
REMARK   49  A    between atoms: _155  and  _156
REMARK   50  A    between atoms: _164  and  _166
REMARK   51  A    between atoms: _166  and  _167
REMARK   52  A    between atoms: _166  and  _169
REMARK   53  A    between atoms: _169  and  _170
REMARK   54  A    between atoms: _170  and  _171
REMARK   55  A    between atoms: _174  and  _176
REMARK   56  A    between atoms: _176  and  _177
REMARK   57  A    between atoms: _176  and  _179
REMARK   58  A    between atoms: _179  and  _180
REMARK   59  A    between atoms: _185  and  _187
REMARK   60  A    between atoms: _187  and  _188
REMARK   61  A    between atoms: _187  and  _190
REMARK   62  A    between atoms: _190  and  _191
REMARK   63  A    between atoms: _191  and  _192
REMARK   64  A    between atoms: _195  and  _197
REMARK   65  A    between atoms: _197  and  _198
REMARK   66  A    between atoms: _197  and  _200
REMARK   67  A    between atoms: _200  and  _201
REMARK   68  A    between atoms: _204  and  _206
REMARK   69  A    between atoms: _206  and  _207
REMARK   70  A    between atoms: _206  and  _209
REMARK   71  A    between atoms: _209  and  _210
REMARK   72  A    between atoms: _211  and  ZN_456
REMARK   73  A    between atoms: _215  and  _217
REMARK   74  A    between atoms: _217  and  _218
REMARK   75  A    between atoms: _217  and  _220
REMARK   76  A    between atoms: _220  and  _221
REMARK   77  A    between atoms: _224  and  _226
REMARK   78  A    between atoms: _226  and  _227
REMARK   79  A    between atoms: _226  and  _229
REMARK   80  A    between atoms: _232  and  _234
REMARK   81  A    between atoms: _234  and  _235
REMARK   82  A    between atoms: _234  and  _237
REMARK   83  A    between atoms: _237  and  _238
REMARK   84  A    between atoms: _243  and  _245
REMARK   85  A    between atoms: _245  and  _246
REMARK   86  A    between atoms: _245  and  _248
REMARK   87  A    between atoms: _248  and  _249
REMARK   88  A    between atoms: _255  and  _257
REMARK   89  A    between atoms: _257  and  _258
REMARK   90  A    between atoms: _260  and  _262
REMARK   91  A    between atoms: _262  and  _263
REMARK   92  A    between atoms: _262  and  _265
REMARK   93  A    between atoms: _265  and  _266
REMARK   94  A    between atoms: _266  and  _267
REMARK   95  A    between atoms: _267  and  _268
REMARK   96  A    between atoms: _268  and  _269
REMARK   97  A    between atoms: _273  and  _275
REMARK   98  A    between atoms: _275  and  _276
REMARK   99  A    between atoms: _275  and  _278
REMARK  100  A    between atoms: _281  and  _283
REMARK  101  A    between atoms: _283  and  _284
REMARK  102  A    between atoms: _283  and  _286
REMARK  103  A    between atoms: _286  and  _287
REMARK  104  A    between atoms: _287  and  _288
REMARK  105  A    between atoms: _293  and  _295
REMARK  106  A    between atoms: _295  and  _296
REMARK  107  A    between atoms: _295  and  _298
REMARK  108  A    between atoms: _298  and  _299
REMARK  109  A    between atoms: _302  and  _304
REMARK  110  A    between atoms: _304  and  _305
REMARK  111  A    between atoms: _308  and  _310
REMARK  112  A    between atoms: _310  and  _311
REMARK  113  A    between atoms: _310  and  _313
REMARK  114  A    between atoms: _316  and  _318
REMARK  115  A    between atoms: _318  and  _319
REMARK  116  A    between atoms: _318  and  _321
REMARK  117  A    between atoms: _321  and  _322
REMARK  118  A    between atoms: _325  and  _327
REMARK  119  A    between atoms: _327  and  _328
REMARK  120  A    between atoms: _330  and  _332
REMARK  121  A    between atoms: _332  and  _333
REMARK  122  A    between atoms: _332  and  _335
REMARK  123  A    between atoms: _335  and  _336
REMARK  124  A    between atoms: _338  and  _340
REMARK  125  A    between atoms: _340  and  _341
REMARK  126  A    between atoms: _340  and  _343
REMARK  127  A    between atoms: _343  and  _344
REMARK  128  A    between atoms: _347  and  _349
REMARK  129  A    between atoms: _349  and  _350
REMARK  130  A    between atoms: _349  and  _352
REMARK  131  A    between atoms: _352  and  _353
REMARK  132  A    between atoms: _356  and  _358
REMARK  133  A    between atoms: _358  and  _359
REMARK  134  A    between atoms: _358  and  _361
REMARK  135  A    between atoms: _361  and  _362
REMARK  136  A    between atoms: _366  and  _367
REMARK  137  A    between atoms: _373  and  _374
REMARK  138  A    between atoms: _379  and  _381
REMARK  139  A    between atoms: _381  and  _382
REMARK  140  A    between atoms: _381  and  _384
REMARK  141  A    between atoms: _384  and  _385
REMARK  142  A    between atoms: _388  and  _390
REMARK  143  A    between atoms: _390  and  _391
REMARK  144  A    between atoms: _390  and  _393
REMARK  145  A    between atoms: _393  and  _394
REMARK  146  A    between atoms: _397  and  _399
REMARK  147  A    between atoms: _399  and  _400
REMARK  148  A    between atoms: _399  and  _402
REMARK  149  A    between atoms: _404  and  _406
REMARK  150  A    between atoms: _406  and  _407
REMARK  151  A    between atoms: _406  and  _409
REMARK  152  A    between atoms: _412  and  _414
REMARK  153  A    between atoms: _414  and  _415
REMARK  154  A    between atoms: _414  and  _417
REMARK  155  A    between atoms: _417  and  _418
REMARK  156  A    between atoms: _428  and  _430
REMARK  157  A    between atoms: _430  and  _431
REMARK  158  A    between atoms: _430  and  _433
REMARK  159  A    between atoms: _433  and  _434
REMARK  160  A    between atoms: _439  and  _441
REMARK  161  A    between atoms: _441  and  _442
REMARK  162  A    between atoms: _441  and  _444
REMARK  163  A    between atoms: _444  and  _445
REMARK  164  A    between atoms: _445  and  _446
REMARK  165  A    between atoms: _446  and  _447
REMARK                            x       y       z     vdW  Elec       q    Type
REMARK                         _______ _______ _______ _____ _____    ______ ____
ROOT
ATOM      1  O   HOH     1      -1.238  -3.993  15.754  0.00  0.00    +0.000 OA
ENDROOT
TORSDOF 0
REMARK  Name = ../refined-set-2016/3oyq/3oyq_pocket.pdb
REMARK  165 active torsions:
REMARK  status: ('A' for Active; 'I' for Inactive)
REMARK    1  A    between atoms: _1  and  _3
REMARK    2  A    between atoms: _3  and  _4
REMARK    3  A    between atoms: _3  and  _6
REMARK    4  A    between atoms: _6  and  _7
REMARK    5  A    between atoms: _17  and  _19
REMARK    6  A    between atoms: _19  and  _20
REMARK    7  A    between atoms: _19  and  _22
REMARK    8  A    between atoms: _22  and  _23
REMARK    9  A    between atoms: _28  and  _29
REMARK   10  A    between atoms: _31  and  _33
REMARK   11  A    between atoms: _33  and  _34
REMARK   12  A    between atoms: _33  and  _36
REMARK   13  A    between atoms: _36  and  _37
REMARK   14  A    between atoms: _43  and  _45
REMARK   15  A    between atoms: _45  and  _46
REMARK   16  A    between atoms: _45  and  _48
REMARK   17  A    between atoms: _48  and  _49
REMARK   18  A    between atoms: _52  and  _53
REMARK   19  A    between atoms: _58  and  _60
REMARK   20  A    between atoms: _60  and  _61
REMARK   21  A    between atoms: _60  and  _63
REMARK   22  A    between atoms: _63  and  _64
REMARK   23  A    between atoms: _69  and  _71
REMARK   24  A    between atoms: _71  and  _72
REMARK   25  A    between atoms: _71  and  _74
REMARK   26  A    between atoms: _74  and  _75
REMARK   27  A    between atoms: _80  and  _82
REMARK   28  A    between atoms: _82  and  _83
REMARK   29  A    between atoms: _86  and  _88
REMARK   30  A    between atoms: _88  and  _89
REMARK   31  A    between atoms: _88  and  _91
REMARK   32  A    between atoms: _91  and  _92
REMARK   33  A    between atoms: _97  and  _99
REMARK   34  A    between atoms: _99  and  _100
REMARK   35  A    between atoms: _99  and  _102
REMARK   36  A    between atoms: _102  and  _103
REMARK   37  A    between atoms: _106  and  _108
REMARK   38  A    between atoms: _108  and  _109
REMARK   39  A    between atoms: _108  and  _111
REMARK   40  A    between atoms: _111  and  _112
REMARK   41  A    between atoms: _112  and  _113
REMARK   42  A    between atoms: _118  and  _120
REMARK   43  A    between atoms: _120  and  _121
REMARK   44  A    between atoms: _120  and  _123
REMARK   45  A    between atoms: _123  and  _124
REMARK   46  A    between atoms: _130  and  _132
REMARK   47  A    between atoms: _143  and  _146
REMARK   48  A    between atoms: _146  and  _147
REMARK   49  A    between atoms: _155  and  _156
REMARK   50  A    between atoms: _164  and  _166
REMARK   51  A    between atoms: _166  and  _167
REMARK   52  A    between atoms: _166  and  _169
REMARK   53  A    between atoms: _169  and  _170
REMARK   54  A    between atoms: _170  and  _171
REMARK   55  A    between atoms: _174  and  _176
REMARK   56  A    between atoms: _176  and  _177
REMARK   57  A    between atoms: _176  and  _179
REMARK   58  A    between atoms: _179  and  _180
REMARK   59  A    between atoms: _185  and  _187
REMARK   60  A    between atoms: _187  and  _188
REMARK   61  A    between atoms: _187  and  _190
REMARK   62  A    between atoms: _190  and  _191
REMARK   63  A    between atoms: _191  and  _192
REMARK   64  A    between atoms: _195  and  _197
REMARK   65  A    between atoms: _197  and  _198
REMARK   66  A    between atoms: _197  and  _200
REMARK   67  A    between atoms: _200  and  _201
REMARK   68  A    between atoms: _204  and  _206
REMARK   69  A    between atoms: _206  and  _207
REMARK   70  A    between atoms: _206  and  _209
REMARK   71  A    between atoms: _209  and  _210
REMARK   72  A    between atoms: _211  and  ZN_456
REMARK   73  A    between atoms: _215  and  _217
REMARK   74  A    between atoms: _217  and  _218
REMARK   75  A    between atoms: _217  and  _220
REMARK   76  A    between atoms: _220  and  _221
REMARK   77  A    between atoms: _224  and  _226
REMARK   78  A    between atoms: _226  and  _227
REMARK   79  A    between atoms: _226  and  _229
REMARK   80  A    between atoms: _232  and  _234
REMARK   81  A    between atoms: _234  and  _235
REMARK   82  A    between atoms: _234  and  _237
REMARK   83  A    between atoms: _237  and  _238
REMARK   84  A    between atoms: _243  and  _245
REMARK   85  A    between atoms: _245  and  _246
REMARK   86  A    between atoms: _245  and  _248
REMARK   87  A    between atoms: _248  and  _249
REMARK   88  A    between atoms: _255  and  _257
REMARK   89  A    between atoms: _257  and  _258
REMARK   90  A    between atoms: _260  and  _262
REMARK   91  A    between atoms: _262  and  _263
REMARK   92  A    between atoms: _262  and  _265
REMARK   93  A    between atoms: _265  and  _266
REMARK   94  A    between atoms: _266  and  _267
REMARK   95  A    between atoms: _267  and  _268
REMARK   96  A    between atoms: _268  and  _269
REMARK   97  A    between atoms: _273  and  _275
REMARK   98  A    between atoms: _275  and  _276
REMARK   99  A    between atoms: _275  and  _278
REMARK  100  A    between atoms: _281  and  _283
REMARK  101  A    between atoms: _283  and  _284
REMARK  102  A    between atoms: _283  and  _286
REMARK  103  A    between atoms: _286  and  _287
REMARK  104  A    between atoms: _287  and  _288
REMARK  105  A    between atoms: _293  and  _295
REMARK  106  A    between atoms: _295  and  _296
REMARK  107  A    between atoms: _295  and  _298
REMARK  108  A    between atoms: _298  and  _299
REMARK  109  A    between atoms: _302  and  _304
REMARK  110  A    between atoms: _304  and  _305
REMARK  111  A    between atoms: _308  and  _310
REMARK  112  A    between atoms: _310  and  _311
REMARK  113  A    between atoms: _310  and  _313
REMARK  114  A    between atoms: _316  and  _318
REMARK  115  A    between atoms: _318  and  _319
REMARK  116  A    between atoms: _318  and  _321
REMARK  117  A    between atoms: _321  and  _322
REMARK  118  A    between atoms: _325  and  _327
REMARK  119  A    between atoms: _327  and  _328
REMARK  120  A    between atoms: _330  and  _332
REMARK  121  A    between atoms: _332  and  _333
REMARK  122  A    between atoms: _332  and  _335
REMARK  123  A    between atoms: _335  and  _336
REMARK  124  A    between atoms: _338  and  _340
REMARK  125  A    between atoms: _340  and  _341
REMARK  126  A    between atoms: _340  and  _343
REMARK  127  A    between atoms: _343  and  _344
REMARK  128  A    between atoms: _347  and  _349
REMARK  129  A    between atoms: _349  and  _350
REMARK  130  A    between atoms: _349  and  _352
REMARK  131  A    between atoms: _352  and  _353
REMARK  132  A    between atoms: _356  and  _358
REMARK  133  A    between atoms: _358  and  _359
REMARK  134  A    between atoms: _358  and  _361
REMARK  135  A    between atoms: _361  and  _362
REMARK  136  A    between atoms: _366  and  _367
REMARK  137  A    between atoms: _373  and  _374
REMARK  138  A    between atoms: _379  and  _381
REMARK  139  A    between atoms: _381  and  _382
REMARK  140  A    between atoms: _381  and  _384
REMARK  141  A    between atoms: _384  and  _385
REMARK  142  A    between atoms: _388  and  _390
REMARK  143  A    between atoms: _390  and  _391
REMARK  144  A    between atoms: _390  and  _393
REMARK  145  A    between atoms: _393  and  _394
REMARK  146  A    between atoms: _397  and  _399
REMARK  147  A    between atoms: _399  and  _400
REMARK  148  A    between atoms: _399  and  _402
REMARK  149  A    between atoms: _404  and  _406
REMARK  150  A    between atoms: _406  and  _407
REMARK  151  A    between atoms: _406  and  _409
REMARK  152  A    between atoms: _412  and  _414
REMARK  153  A    between atoms: _414  and  _415
REMARK  154  A    between atoms: _414  and  _417
REMARK  155  A    between atoms: _417  and  _418
REMARK  156  A    between atoms: _428  and  _430
REMARK  157  A    between atoms: _430  and  _431
REMARK  158  A    between atoms: _430  and  _433
REMARK  159  A    between atoms: _433  and  _434
REMARK  160  A    between atoms: _439  and  _441
REMARK  161  A    between atoms: _441  and  _442
REMARK  162  A    between atoms: _441  and  _444
REMARK  163  A    between atoms: _444  and  _445
REMARK  164  A    between atoms: _445  and  _446
REMARK  165  A    between atoms: _446  and  _447
REMARK                            x       y       z     vdW  Elec       q    Type
REMARK                         _______ _______ _______ _____ _____    ______ ____
ROOT
ATOM      1  O   HOH     1      -6.997   6.023   6.730  0.00  0.00    +0.000 OA
ENDROOT
TORSDOF 0
REMARK  Name = ../refined-set-2016/3oyq/3oyq_pocket.pdb
REMARK  165 active torsions:
REMARK  status: ('A' for Active; 'I' for Inactive)
REMARK    1  A    between atoms: _1  and  _3
REMARK    2  A    between atoms: _3  and  _4
REMARK    3  A    between atoms: _3  and  _6
REMARK    4  A    between atoms: _6  and  _7
REMARK    5  A    between atoms: _17  and  _19
REMARK    6  A    between atoms: _19  and  _20
REMARK    7  A    between atoms: _19  and  _22
REMARK    8  A    between atoms: _22  and  _23
REMARK    9  A    between atoms: _28  and  _29
REMARK   10  A    between atoms: _31  and  _33
REMARK   11  A    between atoms: _33  and  _34
REMARK   12  A    between atoms: _33  and  _36
REMARK   13  A    between atoms: _36  and  _37
REMARK   14  A    between atoms: _43  and  _45
REMARK   15  A    between atoms: _45  and  _46
REMARK   16  A    between atoms: _45  and  _48
REMARK   17  A    between atoms: _48  and  _49
REMARK   18  A    between atoms: _52  and  _53
REMARK   19  A    between atoms: _58  and  _60
REMARK   20  A    between atoms: _60  and  _61
REMARK   21  A    between atoms: _60  and  _63
REMARK   22  A    between atoms: _63  and  _64
REMARK   23  A    between atoms: _69  and  _71
REMARK   24  A    between atoms: _71  and  _72
REMARK   25  A    between atoms: _71  and  _74
REMARK   26  A    between atoms: _74  and  _75
REMARK   27  A    between atoms: _80  and  _82
REMARK   28  A    between atoms: _82  and  _83
REMARK   29  A    between atoms: _86  and  _88
REMARK   30  A    between atoms: _88  and  _89
REMARK   31  A    between atoms: _88  and  _91
REMARK   32  A    between atoms: _91  and  _92
REMARK   33  A    between atoms: _97  and  _99
REMARK   34  A    between atoms: _99  and  _100
REMARK   35  A    between atoms: _99  and  _102
REMARK   36  A    between atoms: _102  and  _103
REMARK   37  A    between atoms: _106  and  _108
REMARK   38  A    between atoms: _108  and  _109
REMARK   39  A    between atoms: _108  and  _111
REMARK   40  A    between atoms: _111  and  _112
REMARK   41  A    between atoms: _112  and  _113
REMARK   42  A    between atoms: _118  and  _120
REMARK   43  A    between atoms: _120  and  _121
REMARK   44  A    between atoms: _120  and  _123
REMARK   45  A    between atoms: _123  and  _124
REMARK   46  A    between atoms: _130  and  _132
REMARK   47  A    between atoms: _143  and  _146
REMARK   48  A    between atoms: _146  and  _147
REMARK   49  A    between atoms: _155  and  _156
REMARK   50  A    between atoms: _164  and  _166
REMARK   51  A    between atoms: _166  and  _167
REMARK   52  A    between atoms: _166  and  _169
REMARK   53  A    between atoms: _169  and  _170
REMARK   54  A    between atoms: _170  and  _171
REMARK   55  A    between atoms: _174  and  _176
REMARK   56  A    between atoms: _176  and  _177
REMARK   57  A    between atoms: _176  and  _179
REMARK   58  A    between atoms: _179  and  _180
REMARK   59  A    between atoms: _185  and  _187
REMARK   60  A    between atoms: _187  and  _188
REMARK   61  A    between atoms: _187  and  _190
REMARK   62  A    between atoms: _190  and  _191
REMARK   63  A    between atoms: _191  and  _192
REMARK   64  A    between atoms: _195  and  _197
REMARK   65  A    between atoms: _197  and  _198
REMARK   66  A    between atoms: _197  and  _200
REMARK   67  A    between atoms: _200  and  _201
REMARK   68  A    between atoms: _204  and  _206
REMARK   69  A    between atoms: _206  and  _207
REMARK   70  A    between atoms: _206  and  _209
REMARK   71  A    between atoms: _209  and  _210
REMARK   72  A    between atoms: _211  and  ZN_456
REMARK   73  A    between atoms: _215  and  _217
REMARK   74  A    between atoms: _217  and  _218
REMARK   75  A    between atoms: _217  and  _220
REMARK   76  A    between atoms: _220  and  _221
REMARK   77  A    between atoms: _224  and  _226
REMARK   78  A    between atoms: _226  and  _227
REMARK   79  A    between atoms: _226  and  _229
REMARK   80  A    between atoms: _232  and  _234
REMARK   81  A    between atoms: _234  and  _235
REMARK   82  A    between atoms: _234  and  _237
REMARK   83  A    between atoms: _237  and  _238
REMARK   84  A    between atoms: _243  and  _245
REMARK   85  A    between atoms: _245  and  _246
REMARK   86  A    between atoms: _245  and  _248
REMARK   87  A    between atoms: _248  and  _249
REMARK   88  A    between atoms: _255  and  _257
REMARK   89  A    between atoms: _257  and  _258
REMARK   90  A    between atoms: _260  and  _262
REMARK   91  A    between atoms: _262  and  _263
REMARK   92  A    between atoms: _262  and  _265
REMARK   93  A    between atoms: _265  and  _266
REMARK   94  A    between atoms: _266  and  _267
REMARK   95  A    between atoms: _267  and  _268
REMARK   96  A    between atoms: _268  and  _269
REMARK   97  A    between atoms: _273  and  _275
REMARK   98  A    between atoms: _275  and  _276
REMARK   99  A    between atoms: _275  and  _278
REMARK  100  A    between atoms: _281  and  _283
REMARK  101  A    between atoms: _283  and  _284
REMARK  102  A    between atoms: _283  and  _286
REMARK  103  A    between atoms: _286  and  _287
REMARK  104  A    between atoms: _287  and  _288
REMARK  105  A    between atoms: _293  and  _295
REMARK  106  A    between atoms: _295  and  _296
REMARK  107  A    between atoms: _295  and  _298
REMARK  108  A    between atoms: _298  and  _299
REMARK  109  A    between atoms: _302  and  _304
REMARK  110  A    between atoms: _304  and  _305
REMARK  111  A    between atoms: _308  and  _310
REMARK  112  A    between atoms: _310  and  _311
REMARK  113  A    between atoms: _310  and  _313
REMARK  114  A    between atoms: _316  and  _318
REMARK  115  A    between atoms: _318  and  _319
REMARK  116  A    between atoms: _318  and  _321
REMARK  117  A    between atoms: _321  and  _322
REMARK  118  A    between atoms: _325  and  _327
REMARK  119  A    between atoms: _327  and  _328
REMARK  120  A    between atoms: _330  and  _332
REMARK  121  A    between atoms: _332  and  _333
REMARK  122  A    between atoms: _332  and  _335
REMARK  123  A    between atoms: _335  and  _336
REMARK  124  A    between atoms: _338  and  _340
REMARK  125  A    between atoms: _340  and  _341
REMARK  126  A    between atoms: _340  and  _343
REMARK  127  A    between atoms: _343  and  _344
REMARK  128  A    between atoms: _347  and  _349
REMARK  129  A    between atoms: _349  and  _350
REMARK  130  A    between atoms: _349  and  _352
REMARK  131  A    between atoms: _352  and  _353
REMARK  132  A    between atoms: _356  and  _358
REMARK  133  A    between atoms: _358  and  _359
REMARK  134  A    between atoms: _358  and  _361
REMARK  135  A    between atoms: _361  and  _362
REMARK  136  A    between atoms: _366  and  _367
REMARK  137  A    between atoms: _373  and  _374
REMARK  138  A    between atoms: _379  and  _381
REMARK  139  A    between atoms: _381  and  _382
REMARK  140  A    between atoms: _381  and  _384
REMARK  141  A    between atoms: _384  and  _385
REMARK  142  A    between atoms: _388  and  _390
REMARK  143  A    between atoms: _390  and  _391
REMARK  144  A    between atoms: _390  and  _393
REMARK  145  A    between atoms: _393  and  _394
REMARK  146  A    between atoms: _397  and  _399
REMARK  147  A    between atoms: _399  and  _400
REMARK  148  A    between atoms: _399  and  _402
REMARK  149  A    between atoms: _404  and  _406
REMARK  150  A    between atoms: _406  and  _407
REMARK  151  A    between atoms: _406  and  _409
REMARK  152  A    between atoms: _412  and  _414
REMARK  153  A    between atoms: _414  and  _415
REMARK  154  A    between atoms: _414  and  _417
REMARK  155  A    between atoms: _417  and  _418
REMARK  156  A    between atoms: _428  and  _430
REMARK  157  A    between atoms: _430  and  _431
REMARK  158  A    between atoms: _430  and  _433
REMARK  159  A    between atoms: _433  and  _434
REMARK  160  A    between atoms: _439  and  _441
REMARK  161  A    between atoms: _441  and  _442
REMARK  162  A    between atoms: _441  and  _444
REMARK  163  A    between atoms: _444  and  _445
REMARK  164  A    between atoms: _445  and  _446
REMARK  165  A    between atoms: _446  and  _447
REMARK                            x       y       z     vdW  Elec       q    Type
REMARK                         _______ _______ _______ _____ _____    ______ ____
ROOT
ATOM      1  O   HOH     1      -6.553   6.889  11.393  0.00  0.00    +0.000 OA
ENDROOT
TORSDOF 0
REMARK  Name = ../refined-set-2016/3oyq/3oyq_pocket.pdb
REMARK  165 active torsions:
REMARK  status: ('A' for Active; 'I' for Inactive)
REMARK    1  A    between atoms: _1  and  _3
REMARK    2  A    between atoms: _3  and  _4
REMARK    3  A    between atoms: _3  and  _6
REMARK    4  A    between atoms: _6  and  _7
REMARK    5  A    between atoms: _17  and  _19
REMARK    6  A    between atoms: _19  and  _20
REMARK    7  A    between atoms: _19  and  _22
REMARK    8  A    between atoms: _22  and  _23
REMARK    9  A    between atoms: _28  and  _29
REMARK   10  A    between atoms: _31  and  _33
REMARK   11  A    between atoms: _33  and  _34
REMARK   12  A    between atoms: _33  and  _36
REMARK   13  A    between atoms: _36  and  _37
REMARK   14  A    between atoms: _43  and  _45
REMARK   15  A    between atoms: _45  and  _46
REMARK   16  A    between atoms: _45  and  _48
REMARK   17  A    between atoms: _48  and  _49
REMARK   18  A    between atoms: _52  and  _53
REMARK   19  A    between atoms: _58  and  _60
REMARK   20  A    between atoms: _60  and  _61
REMARK   21  A    between atoms: _60  and  _63
REMARK   22  A    between atoms: _63  and  _64
REMARK   23  A    between atoms: _69  and  _71
REMARK   24  A    between atoms: _71  and  _72
REMARK   25  A    between atoms: _71  and  _74
REMARK   26  A    between atoms: _74  and  _75
REMARK   27  A    between atoms: _80  and  _82
REMARK   28  A    between atoms: _82  and  _83
REMARK   29  A    between atoms: _86  and  _88
REMARK   30  A    between atoms: _88  and  _89
REMARK   31  A    between atoms: _88  and  _91
REMARK   32  A    between atoms: _91  and  _92
REMARK   33  A    between atoms: _97  and  _99
REMARK   34  A    between atoms: _99  and  _100
REMARK   35  A    between atoms: _99  and  _102
REMARK   36  A    between atoms: _102  and  _103
REMARK   37  A    between atoms: _106  and  _108
REMARK   38  A    between atoms: _108  and  _109
REMARK   39  A    between atoms: _108  and  _111
REMARK   40  A    between atoms: _111  and  _112
REMARK   41  A    between atoms: _112  and  _113
REMARK   42  A    between atoms: _118  and  _120
REMARK   43  A    between atoms: _120  and  _121
REMARK   44  A    between atoms: _120  and  _123
REMARK   45  A    between atoms: _123  and  _124
REMARK   46  A    between atoms: _130  and  _132
REMARK   47  A    between atoms: _143  and  _146
REMARK   48  A    between atoms: _146  and  _147
REMARK   49  A    between atoms: _155  and  _156
REMARK   50  A    between atoms: _164  and  _166
REMARK   51  A    between atoms: _166  and  _167
REMARK   52  A    between atoms: _166  and  _169
REMARK   53  A    between atoms: _169  and  _170
REMARK   54  A    between atoms: _170  and  _171
REMARK   55  A    between atoms: _174  and  _176
REMARK   56  A    between atoms: _176  and  _177
REMARK   57  A    between atoms: _176  and  _179
REMARK   58  A    between atoms: _179  and  _180
REMARK   59  A    between atoms: _185  and  _187
REMARK   60  A    between atoms: _187  and  _188
REMARK   61  A    between atoms: _187  and  _190
REMARK   62  A    between atoms: _190  and  _191
REMARK   63  A    between atoms: _191  and  _192
REMARK   64  A    between atoms: _195  and  _197
REMARK   65  A    between atoms: _197  and  _198
REMARK   66  A    between atoms: _197  and  _200
REMARK   67  A    between atoms: _200  and  _201
REMARK   68  A    between atoms: _204  and  _206
REMARK   69  A    between atoms: _206  and  _207
REMARK   70  A    between atoms: _206  and  _209
REMARK   71  A    between atoms: _209  and  _210
REMARK   72  A    between atoms: _211  and  ZN_456
REMARK   73  A    between atoms: _215  and  _217
REMARK   74  A    between atoms: _217  and  _218
REMARK   75  A    between atoms: _217  and  _220
REMARK   76  A    between atoms: _220  and  _221
REMARK   77  A    between atoms: _224  and  _226
REMARK   78  A    between atoms: _226  and  _227
REMARK   79  A    between atoms: _226  and  _229
REMARK   80  A    between atoms: _232  and  _234
REMARK   81  A    between atoms: _234  and  _235
REMARK   82  A    between atoms: _234  and  _237
REMARK   83  A    between atoms: _237  and  _238
REMARK   84  A    between atoms: _243  and  _245
REMARK   85  A    between atoms: _245  and  _246
REMARK   86  A    between atoms: _245  and  _248
REMARK   87  A    between atoms: _248  and  _249
REMARK   88  A    between atoms: _255  and  _257
REMARK   89  A    between atoms: _257  and  _258
REMARK   90  A    between atoms: _260  and  _262
REMARK   91  A    between atoms: _262  and  _263
REMARK   92  A    between atoms: _262  and  _265
REMARK   93  A    between atoms: _265  and  _266
REMARK   94  A    between atoms: _266  and  _267
REMARK   95  A    between atoms: _267  and  _268
REMARK   96  A    between atoms: _268  and  _269
REMARK   97  A    between atoms: _273  and  _275
REMARK   98  A    between atoms: _275  and  _276
REMARK   99  A    between atoms: _275  and  _278
REMARK  100  A    between atoms: _281  and  _283
REMARK  101  A    between atoms: _283  and  _284
REMARK  102  A    between atoms: _283  and  _286
REMARK  103  A    between atoms: _286  and  _287
REMARK  104  A    between atoms: _287  and  _288
REMARK  105  A    between atoms: _293  and  _295
REMARK  106  A    between atoms: _295  and  _296
REMARK  107  A    between atoms: _295  and  _298
REMARK  108  A    between atoms: _298  and  _299
REMARK  109  A    between atoms: _302  and  _304
REMARK  110  A    between atoms: _304  and  _305
REMARK  111  A    between atoms: _308  and  _310
REMARK  112  A    between atoms: _310  and  _311
REMARK  113  A    between atoms: _310  and  _313
REMARK  114  A    between atoms: _316  and  _318
REMARK  115  A    between atoms: _318  and  _319
REMARK  116  A    between atoms: _318  and  _321
REMARK  117  A    between atoms: _321  and  _322
REMARK  118  A    between atoms: _325  and  _327
REMARK  119  A    between atoms: _327  and  _328
REMARK  120  A    between atoms: _330  and  _332
REMARK  121  A    between atoms: _332  and  _333
REMARK  122  A    between atoms: _332  and  _335
REMARK  123  A    between atoms: _335  and  _336
REMARK  124  A    between atoms: _338  and  _340
REMARK  125  A    between atoms: _340  and  _341
REMARK  126  A    between atoms: _340  and  _343
REMARK  127  A    between atoms: _343  and  _344
REMARK  128  A    between atoms: _347  and  _349
REMARK  129  A    between atoms: _349  and  _350
REMARK  130  A    between atoms: _349  and  _352
REMARK  131  A    between atoms: _352  and  _353
REMARK  132  A    between atoms: _356  and  _358
REMARK  133  A    between atoms: _358  and  _359
REMARK  134  A    between atoms: _358  and  _361
REMARK  135  A    between atoms: _361  and  _362
REMARK  136  A    between atoms: _366  and  _367
REMARK  137  A    between atoms: _373  and  _374
REMARK  138  A    between atoms: _379  and  _381
REMARK  139  A    between atoms: _381  and  _382
REMARK  140  A    between atoms: _381  and  _384
REMARK  141  A    between atoms: _384  and  _385
REMARK  142  A    between atoms: _388  and  _390
REMARK  143  A    between atoms: _390  and  _391
REMARK  144  A    between atoms: _390  and  _393
REMARK  145  A    between atoms: _393  and  _394
REMARK  146  A    between atoms: _397  and  _399
REMARK  147  A    between atoms: _399  and  _400
REMARK  148  A    between atoms: _399  and  _402
REMARK  149  A    between atoms: _404  and  _406
REMARK  150  A    between atoms: _406  and  _407
REMARK  151  A    between atoms: _406  and  _409
REMARK  152  A    between atoms: _412  and  _414
REMARK  153  A    between atoms: _414  and  _415
REMARK  154  A    between atoms: _414  and  _417
REMARK  155  A    between atoms: _417  and  _418
REMARK  156  A    between atoms: _428  and  _430
REMARK  157  A    between atoms: _430  and  _431
REMARK  158  A    between atoms: _430  and  _433
REMARK  159  A    between atoms: _433  and  _434
REMARK  160  A    between atoms: _439  and  _441
REMARK  161  A    between atoms: _441  and  _442
REMARK  162  A    between atoms: _441  and  _444
REMARK  163  A    between atoms: _444  and  _445
REMARK  164  A    between atoms: _445  and  _446
REMARK  165  A    between atoms: _446  and  _447
REMARK                            x       y       z     vdW  Elec       q    Type
REMARK                         _______ _______ _______ _____ _____    ______ ____
ROOT
ATOM      1  O   HOH     1      -4.143   4.999   7.079  0.00  0.00    +0.000 OA
ENDROOT
TORSDOF 0
REMARK  Name = ../refined-set-2016/3oyq/3oyq_pocket.pdb
REMARK  165 active torsions:
REMARK  status: ('A' for Active; 'I' for Inactive)
REMARK    1  A    between atoms: _1  and  _3
REMARK    2  A    between atoms: _3  and  _4
REMARK    3  A    between atoms: _3  and  _6
REMARK    4  A    between atoms: _6  and  _7
REMARK    5  A    between atoms: _17  and  _19
REMARK    6  A    between atoms: _19  and  _20
REMARK    7  A    between atoms: _19  and  _22
REMARK    8  A    between atoms: _22  and  _23
REMARK    9  A    between atoms: _28  and  _29
REMARK   10  A    between atoms: _31  and  _33
REMARK   11  A    between atoms: _33  and  _34
REMARK   12  A    between atoms: _33  and  _36
REMARK   13  A    between atoms: _36  and  _37
REMARK   14  A    between atoms: _43  and  _45
REMARK   15  A    between atoms: _45  and  _46
REMARK   16  A    between atoms: _45  and  _48
REMARK   17  A    between atoms: _48  and  _49
REMARK   18  A    between atoms: _52  and  _53
REMARK   19  A    between atoms: _58  and  _60
REMARK   20  A    between atoms: _60  and  _61
REMARK   21  A    between atoms: _60  and  _63
REMARK   22  A    between atoms: _63  and  _64
REMARK   23  A    between atoms: _69  and  _71
REMARK   24  A    between atoms: _71  and  _72
REMARK   25  A    between atoms: _71  and  _74
REMARK   26  A    between atoms: _74  and  _75
REMARK   27  A    between atoms: _80  and  _82
REMARK   28  A    between atoms: _82  and  _83
REMARK   29  A    between atoms: _86  and  _88
REMARK   30  A    between atoms: _88  and  _89
REMARK   31  A    between atoms: _88  and  _91
REMARK   32  A    between atoms: _91  and  _92
REMARK   33  A    between atoms: _97  and  _99
REMARK   34  A    between atoms: _99  and  _100
REMARK   35  A    between atoms: _99  and  _102
REMARK   36  A    between atoms: _102  and  _103
REMARK   37  A    between atoms: _106  and  _108
REMARK   38  A    between atoms: _108  and  _109
REMARK   39  A    between atoms: _108  and  _111
REMARK   40  A    between atoms: _111  and  _112
REMARK   41  A    between atoms: _112  and  _113
REMARK   42  A    between atoms: _118  and  _120
REMARK   43  A    between atoms: _120  and  _121
REMARK   44  A    between atoms: _120  and  _123
REMARK   45  A    between atoms: _123  and  _124
REMARK   46  A    between atoms: _130  and  _132
REMARK   47  A    between atoms: _143  and  _146
REMARK   48  A    between atoms: _146  and  _147
REMARK   49  A    between atoms: _155  and  _156
REMARK   50  A    between atoms: _164  and  _166
REMARK   51  A    between atoms: _166  and  _167
REMARK   52  A    between atoms: _166  and  _169
REMARK   53  A    between atoms: _169  and  _170
REMARK   54  A    between atoms: _170  and  _171
REMARK   55  A    between atoms: _174  and  _176
REMARK   56  A    between atoms: _176  and  _177
REMARK   57  A    between atoms: _176  and  _179
REMARK   58  A    between atoms: _179  and  _180
REMARK   59  A    between atoms: _185  and  _187
REMARK   60  A    between atoms: _187  and  _188
REMARK   61  A    between atoms: _187  and  _190
REMARK   62  A    between atoms: _190  and  _191
REMARK   63  A    between atoms: _191  and  _192
REMARK   64  A    between atoms: _195  and  _197
REMARK   65  A    between atoms: _197  and  _198
REMARK   66  A    between atoms: _197  and  _200
REMARK   67  A    between atoms: _200  and  _201
REMARK   68  A    between atoms: _204  and  _206
REMARK   69  A    between atoms: _206  and  _207
REMARK   70  A    between atoms: _206  and  _209
REMARK   71  A    between atoms: _209  and  _210
REMARK   72  A    between atoms: _211  and  ZN_456
REMARK   73  A    between atoms: _215  and  _217
REMARK   74  A    between atoms: _217  and  _218
REMARK   75  A    between atoms: _217  and  _220
REMARK   76  A    between atoms: _220  and  _221
REMARK   77  A    between atoms: _224  and  _226
REMARK   78  A    between atoms: _226  and  _227
REMARK   79  A    between atoms: _226  and  _229
REMARK   80  A    between atoms: _232  and  _234
REMARK   81  A    between atoms: _234  and  _235
REMARK   82  A    between atoms: _234  and  _237
REMARK   83  A    between atoms: _237  and  _238
REMARK   84  A    between atoms: _243  and  _245
REMARK   85  A    between atoms: _245  and  _246
REMARK   86  A    between atoms: _245  and  _248
REMARK   87  A    between atoms: _248  and  _249
REMARK   88  A    between atoms: _255  and  _257
REMARK   89  A    between atoms: _257  and  _258
REMARK   90  A    between atoms: _260  and  _262
REMARK   91  A    between atoms: _262  and  _263
REMARK   92  A    between atoms: _262  and  _265
REMARK   93  A    between atoms: _265  and  _266
REMARK   94  A    between atoms: _266  and  _267
REMARK   95  A    between atoms: _267  and  _268
REMARK   96  A    between atoms: _268  and  _269
REMARK   97  A    between atoms: _273  and  _275
REMARK   98  A    between atoms: _275  and  _276
REMARK   99  A    between atoms: _275  and  _278
REMARK  100  A    between atoms: _281  and  _283
REMARK  101  A    between atoms: _283  and  _284
REMARK  102  A    between atoms: _283  and  _286
REMARK  103  A    between atoms: _286  and  _287
REMARK  104  A    between atoms: _287  and  _288
REMARK  105  A    between atoms: _293  and  _295
REMARK  106  A    between atoms: _295  and  _296
REMARK  107  A    between atoms: _295  and  _298
REMARK  108  A    between atoms: _298  and  _299
REMARK  109  A    between atoms: _302  and  _304
REMARK  110  A    between atoms: _304  and  _305
REMARK  111  A    between atoms: _308  and  _310
REMARK  112  A    between atoms: _310  and  _311
REMARK  113  A    between atoms: _310  and  _313
REMARK  114  A    between atoms: _316  and  _318
REMARK  115  A    between atoms: _318  and  _319
REMARK  116  A    between atoms: _318  and  _321
REMARK  117  A    between atoms: _321  and  _322
REMARK  118  A    between atoms: _325  and  _327
REMARK  119  A    between atoms: _327  and  _328
REMARK  120  A    between atoms: _330  and  _332
REMARK  121  A    between atoms: _332  and  _333
REMARK  122  A    between atoms: _332  and  _335
REMARK  123  A    between atoms: _335  and  _336
REMARK  124  A    between atoms: _338  and  _340
REMARK  125  A    between atoms: _340  and  _341
REMARK  126  A    between atoms: _340  and  _343
REMARK  127  A    between atoms: _343  and  _344
REMARK  128  A    between atoms: _347  and  _349
REMARK  129  A    between atoms: _349  and  _350
REMARK  130  A    between atoms: _349  and  _352
REMARK  131  A    between atoms: _352  and  _353
REMARK  132  A    between atoms: _356  and  _358
REMARK  133  A    between atoms: _358  and  _359
REMARK  134  A    between atoms: _358  and  _361
REMARK  135  A    between atoms: _361  and  _362
REMARK  136  A    between atoms: _366  and  _367
REMARK  137  A    between atoms: _373  and  _374
REMARK  138  A    between atoms: _379  and  _381
REMARK  139  A    between atoms: _381  and  _382
REMARK  140  A    between atoms: _381  and  _384
REMARK  141  A    between atoms: _384  and  _385
REMARK  142  A    between atoms: _388  and  _390
REMARK  143  A    between atoms: _390  and  _391
REMARK  144  A    between atoms: _390  and  _393
REMARK  145  A    between atoms: _393  and  _394
REMARK  146  A    between atoms: _397  and  _399
REMARK  147  A    between atoms: _399  and  _400
REMARK  148  A    between atoms: _399  and  _402
REMARK  149  A    between atoms: _404  and  _406
REMARK  150  A    between atoms: _406  and  _407
REMARK  151  A    between atoms: _406  and  _409
REMARK  152  A    between atoms: _412  and  _414
REMARK  153  A    between atoms: _414  and  _415
REMARK  154  A    between atoms: _414  and  _417
REMARK  155  A    between atoms: _417  and  _418
REMARK  156  A    between atoms: _428  and  _430
REMARK  157  A    between atoms: _430  and  _431
REMARK  158  A    between atoms: _430  and  _433
REMARK  159  A    between atoms: _433  and  _434
REMARK  160  A    between atoms: _439  and  _441
REMARK  161  A    between atoms: _441  and  _442
REMARK  162  A    between atoms: _441  and  _444
REMARK  163  A    between atoms: _444  and  _445
REMARK  164  A    between atoms: _445  and  _446
REMARK  165  A    between atoms: _446  and  _447
REMARK                            x       y       z     vdW  Elec       q    Type
REMARK                         _______ _______ _______ _____ _____    ______ ____
ROOT
ATOM      1  O   HOH     1      -8.046   7.727   8.565  0.00  0.00    +0.000 OA
ENDROOT
TORSDOF 0
REMARK  Name = ../refined-set-2016/3oyq/3oyq_pocket.pdb
REMARK  165 active torsions:
REMARK  status: ('A' for Active; 'I' for Inactive)
REMARK    1  A    between atoms: _1  and  _3
REMARK    2  A    between atoms: _3  and  _4
REMARK    3  A    between atoms: _3  and  _6
REMARK    4  A    between atoms: _6  and  _7
REMARK    5  A    between atoms: _17  and  _19
REMARK    6  A    between atoms: _19  and  _20
REMARK    7  A    between atoms: _19  and  _22
REMARK    8  A    between atoms: _22  and  _23
REMARK    9  A    between atoms: _28  and  _29
REMARK   10  A    between atoms: _31  and  _33
REMARK   11  A    between atoms: _33  and  _34
REMARK   12  A    between atoms: _33  and  _36
REMARK   13  A    between atoms: _36  and  _37
REMARK   14  A    between atoms: _43  and  _45
REMARK   15  A    between atoms: _45  and  _46
REMARK   16  A    between atoms: _45  and  _48
REMARK   17  A    between atoms: _48  and  _49
REMARK   18  A    between atoms: _52  and  _53
REMARK   19  A    between atoms: _58  and  _60
REMARK   20  A    between atoms: _60  and  _61
REMARK   21  A    between atoms: _60  and  _63
REMARK   22  A    between atoms: _63  and  _64
REMARK   23  A    between atoms: _69  and  _71
REMARK   24  A    between atoms: _71  and  _72
REMARK   25  A    between atoms: _71  and  _74
REMARK   26  A    between atoms: _74  and  _75
REMARK   27  A    between atoms: _80  and  _82
REMARK   28  A    between atoms: _82  and  _83
REMARK   29  A    between atoms: _86  and  _88
REMARK   30  A    between atoms: _88  and  _89
REMARK   31  A    between atoms: _88  and  _91
REMARK   32  A    between atoms: _91  and  _92
REMARK   33  A    between atoms: _97  and  _99
REMARK   34  A    between atoms: _99  and  _100
REMARK   35  A    between atoms: _99  and  _102
REMARK   36  A    between atoms: _102  and  _103
REMARK   37  A    between atoms: _106  and  _108
REMARK   38  A    between atoms: _108  and  _109
REMARK   39  A    between atoms: _108  and  _111
REMARK   40  A    between atoms: _111  and  _112
REMARK   41  A    between atoms: _112  and  _113
REMARK   42  A    between atoms: _118  and  _120
REMARK   43  A    between atoms: _120  and  _121
REMARK   44  A    between atoms: _120  and  _123
REMARK   45  A    between atoms: _123  and  _124
REMARK   46  A    between atoms: _130  and  _132
REMARK   47  A    between atoms: _143  and  _146
REMARK   48  A    between atoms: _146  and  _147
REMARK   49  A    between atoms: _155  and  _156
REMARK   50  A    between atoms: _164  and  _166
REMARK   51  A    between atoms: _166  and  _167
REMARK   52  A    between atoms: _166  and  _169
REMARK   53  A    between atoms: _169  and  _170
REMARK   54  A    between atoms: _170  and  _171
REMARK   55  A    between atoms: _174  and  _176
REMARK   56  A    between atoms: _176  and  _177
REMARK   57  A    between atoms: _176  and  _179
REMARK   58  A    between atoms: _179  and  _180
REMARK   59  A    between atoms: _185  and  _187
REMARK   60  A    between atoms: _187  and  _188
REMARK   61  A    between atoms: _187  and  _190
REMARK   62  A    between atoms: _190  and  _191
REMARK   63  A    between atoms: _191  and  _192
REMARK   64  A    between atoms: _195  and  _197
REMARK   65  A    between atoms: _197  and  _198
REMARK   66  A    between atoms: _197  and  _200
REMARK   67  A    between atoms: _200  and  _201
REMARK   68  A    between atoms: _204  and  _206
REMARK   69  A    between atoms: _206  and  _207
REMARK   70  A    between atoms: _206  and  _209
REMARK   71  A    between atoms: _209  and  _210
REMARK   72  A    between atoms: _211  and  ZN_456
REMARK   73  A    between atoms: _215  and  _217
REMARK   74  A    between atoms: _217  and  _218
REMARK   75  A    between atoms: _217  and  _220
REMARK   76  A    between atoms: _220  and  _221
REMARK   77  A    between atoms: _224  and  _226
REMARK   78  A    between atoms: _226  and  _227
REMARK   79  A    between atoms: _226  and  _229
REMARK   80  A    between atoms: _232  and  _234
REMARK   81  A    between atoms: _234  and  _235
REMARK   82  A    between atoms: _234  and  _237
REMARK   83  A    between atoms: _237  and  _238
REMARK   84  A    between atoms: _243  and  _245
REMARK   85  A    between atoms: _245  and  _246
REMARK   86  A    between atoms: _245  and  _248
REMARK   87  A    between atoms: _248  and  _249
REMARK   88  A    between atoms: _255  and  _257
REMARK   89  A    between atoms: _257  and  _258
REMARK   90  A    between atoms: _260  and  _262
REMARK   91  A    between atoms: _262  and  _263
REMARK   92  A    between atoms: _262  and  _265
REMARK   93  A    between atoms: _265  and  _266
REMARK   94  A    between atoms: _266  and  _267
REMARK   95  A    between atoms: _267  and  _268
REMARK   96  A    between atoms: _268  and  _269
REMARK   97  A    between atoms: _273  and  _275
REMARK   98  A    between atoms: _275  and  _276
REMARK   99  A    between atoms: _275  and  _278
REMARK  100  A    between atoms: _281  and  _283
REMARK  101  A    between atoms: _283  and  _284
REMARK  102  A    between atoms: _283  and  _286
REMARK  103  A    between atoms: _286  and  _287
REMARK  104  A    between atoms: _287  and  _288
REMARK  105  A    between atoms: _293  and  _295
REMARK  106  A    between atoms: _295  and  _296
REMARK  107  A    between atoms: _295  and  _298
REMARK  108  A    between atoms: _298  and  _299
REMARK  109  A    between atoms: _302  and  _304
REMARK  110  A    between atoms: _304  and  _305
REMARK  111  A    between atoms: _308  and  _310
REMARK  112  A    between atoms: _310  and  _311
REMARK  113  A    between atoms: _310  and  _313
REMARK  114  A    between atoms: _316  and  _318
REMARK  115  A    between atoms: _318  and  _319
REMARK  116  A    between atoms: _318  and  _321
REMARK  117  A    between atoms: _321  and  _322
REMARK  118  A    between atoms: _325  and  _327
REMARK  119  A    between atoms: _327  and  _328
REMARK  120  A    between atoms: _330  and  _332
REMARK  121  A    between atoms: _332  and  _333
REMARK  122  A    between atoms: _332  and  _335
REMARK  123  A    between atoms: _335  and  _336
REMARK  124  A    between atoms: _338  and  _340
REMARK  125  A    between atoms: _340  and  _341
REMARK  126  A    between atoms: _340  and  _343
REMARK  127  A    between atoms: _343  and  _344
REMARK  128  A    between atoms: _347  and  _349
REMARK  129  A    between atoms: _349  and  _350
REMARK  130  A    between atoms: _349  and  _352
REMARK  131  A    between atoms: _352  and  _353
REMARK  132  A    between atoms: _356  and  _358
REMARK  133  A    between atoms: _358  and  _359
REMARK  134  A    between atoms: _358  and  _361
REMARK  135  A    between atoms: _361  and  _362
REMARK  136  A    between atoms: _366  and  _367
REMARK  137  A    between atoms: _373  and  _374
REMARK  138  A    between atoms: _379  and  _381
REMARK  139  A    between atoms: _381  and  _382
REMARK  140  A    between atoms: _381  and  _384
REMARK  141  A    between atoms: _384  and  _385
REMARK  142  A    between atoms: _388  and  _390
REMARK  143  A    between atoms: _390  and  _391
REMARK  144  A    between atoms: _390  and  _393
REMARK  145  A    between atoms: _393  and  _394
REMARK  146  A    between atoms: _397  and  _399
REMARK  147  A    between atoms: _399  and  _400
REMARK  148  A    between atoms: _399  and  _402
REMARK  149  A    between atoms: _404  and  _406
REMARK  150  A    between atoms: _406  and  _407
REMARK  151  A    between atoms: _406  and  _409
REMARK  152  A    between atoms: _412  and  _414
REMARK  153  A    between atoms: _414  and  _415
REMARK  154  A    between atoms: _414  and  _417
REMARK  155  A    between atoms: _417  and  _418
REMARK  156  A    between atoms: _428  and  _430
REMARK  157  A    between atoms: _430  and  _431
REMARK  158  A    between atoms: _430  and  _433
REMARK  159  A    between atoms: _433  and  _434
REMARK  160  A    between atoms: _439  and  _441
REMARK  161  A    between atoms: _441  and  _442
REMARK  162  A    between atoms: _441  and  _444
REMARK  163  A    between atoms: _444  and  _445
REMARK  164  A    between atoms: _445  and  _446
REMARK  165  A    between atoms: _446  and  _447
REMARK                            x       y       z     vdW  Elec       q    Type
REMARK                         _______ _______ _______ _____ _____    ______ ____
ROOT
ATOM      1  O   HOH     1      -0.450  14.179  16.138  0.00  0.00    +0.000 OA
ENDROOT
TORSDOF 0
REMARK  Name = ../refined-set-2016/3oyq/3oyq_pocket.pdb
REMARK  165 active torsions:
REMARK  status: ('A' for Active; 'I' for Inactive)
REMARK    1  A    between atoms: _1  and  _3
REMARK    2  A    between atoms: _3  and  _4
REMARK    3  A    between atoms: _3  and  _6
REMARK    4  A    between atoms: _6  and  _7
REMARK    5  A    between atoms: _17  and  _19
REMARK    6  A    between atoms: _19  and  _20
REMARK    7  A    between atoms: _19  and  _22
REMARK    8  A    between atoms: _22  and  _23
REMARK    9  A    between atoms: _28  and  _29
REMARK   10  A    between atoms: _31  and  _33
REMARK   11  A    between atoms: _33  and  _34
REMARK   12  A    between atoms: _33  and  _36
REMARK   13  A    between atoms: _36  and  _37
REMARK   14  A    between atoms: _43  and  _45
REMARK   15  A    between atoms: _45  and  _46
REMARK   16  A    between atoms: _45  and  _48
REMARK   17  A    between atoms: _48  and  _49
REMARK   18  A    between atoms: _52  and  _53
REMARK   19  A    between atoms: _58  and  _60
REMARK   20  A    between atoms: _60  and  _61
REMARK   21  A    between atoms: _60  and  _63
REMARK   22  A    between atoms: _63  and  _64
REMARK   23  A    between atoms: _69  and  _71
REMARK   24  A    between atoms: _71  and  _72
REMARK   25  A    between atoms: _71  and  _74
REMARK   26  A    between atoms: _74  and  _75
REMARK   27  A    between atoms: _80  and  _82
REMARK   28  A    between atoms: _82  and  _83
REMARK   29  A    between atoms: _86  and  _88
REMARK   30  A    between atoms: _88  and  _89
REMARK   31  A    between atoms: _88  and  _91
REMARK   32  A    between atoms: _91  and  _92
REMARK   33  A    between atoms: _97  and  _99
REMARK   34  A    between atoms: _99  and  _100
REMARK   35  A    between atoms: _99  and  _102
REMARK   36  A    between atoms: _102  and  _103
REMARK   37  A    between atoms: _106  and  _108
REMARK   38  A    between atoms: _108  and  _109
REMARK   39  A    between atoms: _108  and  _111
REMARK   40  A    between atoms: _111  and  _112
REMARK   41  A    between atoms: _112  and  _113
REMARK   42  A    between atoms: _118  and  _120
REMARK   43  A    between atoms: _120  and  _121
REMARK   44  A    between atoms: _120  and  _123
REMARK   45  A    between atoms: _123  and  _124
REMARK   46  A    between atoms: _130  and  _132
REMARK   47  A    between atoms: _143  and  _146
REMARK   48  A    between atoms: _146  and  _147
REMARK   49  A    between atoms: _155  and  _156
REMARK   50  A    between atoms: _164  and  _166
REMARK   51  A    between atoms: _166  and  _167
REMARK   52  A    between atoms: _166  and  _169
REMARK   53  A    between atoms: _169  and  _170
REMARK   54  A    between atoms: _170  and  _171
REMARK   55  A    between atoms: _174  and  _176
REMARK   56  A    between atoms: _176  and  _177
REMARK   57  A    between atoms: _176  and  _179
REMARK   58  A    between atoms: _179  and  _180
REMARK   59  A    between atoms: _185  and  _187
REMARK   60  A    between atoms: _187  and  _188
REMARK   61  A    between atoms: _187  and  _190
REMARK   62  A    between atoms: _190  and  _191
REMARK   63  A    between atoms: _191  and  _192
REMARK   64  A    between atoms: _195  and  _197
REMARK   65  A    between atoms: _197  and  _198
REMARK   66  A    between atoms: _197  and  _200
REMARK   67  A    between atoms: _200  and  _201
REMARK   68  A    between atoms: _204  and  _206
REMARK   69  A    between atoms: _206  and  _207
REMARK   70  A    between atoms: _206  and  _209
REMARK   71  A    between atoms: _209  and  _210
REMARK   72  A    between atoms: _211  and  ZN_456
REMARK   73  A    between atoms: _215  and  _217
REMARK   74  A    between atoms: _217  and  _218
REMARK   75  A    between atoms: _217  and  _220
REMARK   76  A    between atoms: _220  and  _221
REMARK   77  A    between atoms: _224  and  _226
REMARK   78  A    between atoms: _226  and  _227
REMARK   79  A    between atoms: _226  and  _229
REMARK   80  A    between atoms: _232  and  _234
REMARK   81  A    between atoms: _234  and  _235
REMARK   82  A    between atoms: _234  and  _237
REMARK   83  A    between atoms: _237  and  _238
REMARK   84  A    between atoms: _243  and  _245
REMARK   85  A    between atoms: _245  and  _246
REMARK   86  A    between atoms: _245  and  _248
REMARK   87  A    between atoms: _248  and  _249
REMARK   88  A    between atoms: _255  and  _257
REMARK   89  A    between atoms: _257  and  _258
REMARK   90  A    between atoms: _260  and  _262
REMARK   91  A    between atoms: _262  and  _263
REMARK   92  A    between atoms: _262  and  _265
REMARK   93  A    between atoms: _265  and  _266
REMARK   94  A    between atoms: _266  and  _267
REMARK   95  A    between atoms: _267  and  _268
REMARK   96  A    between atoms: _268  and  _269
REMARK   97  A    between atoms: _273  and  _275
REMARK   98  A    between atoms: _275  and  _276
REMARK   99  A    between atoms: _275  and  _278
REMARK  100  A    between atoms: _281  and  _283
REMARK  101  A    between atoms: _283  and  _284
REMARK  102  A    between atoms: _283  and  _286
REMARK  103  A    between atoms: _286  and  _287
REMARK  104  A    between atoms: _287  and  _288
REMARK  105  A    between atoms: _293  and  _295
REMARK  106  A    between atoms: _295  and  _296
REMARK  107  A    between atoms: _295  and  _298
REMARK  108  A    between atoms: _298  and  _299
REMARK  109  A    between atoms: _302  and  _304
REMARK  110  A    between atoms: _304  and  _305
REMARK  111  A    between atoms: _308  and  _310
REMARK  112  A    between atoms: _310  and  _311
REMARK  113  A    between atoms: _310  and  _313
REMARK  114  A    between atoms: _316  and  _318
REMARK  115  A    between atoms: _318  and  _319
REMARK  116  A    between atoms: _318  and  _321
REMARK  117  A    between atoms: _321  and  _322
REMARK  118  A    between atoms: _325  and  _327
REMARK  119  A    between atoms: _327  and  _328
REMARK  120  A    between atoms: _330  and  _332
REMARK  121  A    between atoms: _332  and  _333
REMARK  122  A    between atoms: _332  and  _335
REMARK  123  A    between atoms: _335  and  _336
REMARK  124  A    between atoms: _338  and  _340
REMARK  125  A    between atoms: _340  and  _341
REMARK  126  A    between atoms: _340  and  _343
REMARK  127  A    between atoms: _343  and  _344
REMARK  128  A    between atoms: _347  and  _349
REMARK  129  A    between atoms: _349  and  _350
REMARK  130  A    between atoms: _349  and  _352
REMARK  131  A    between atoms: _352  and  _353
REMARK  132  A    between atoms: _356  and  _358
REMARK  133  A    between atoms: _358  and  _359
REMARK  134  A    between atoms: _358  and  _361
REMARK  135  A    between atoms: _361  and  _362
REMARK  136  A    between atoms: _366  and  _367
REMARK  137  A    between atoms: _373  and  _374
REMARK  138  A    between atoms: _379  and  _381
REMARK  139  A    between atoms: _381  and  _382
REMARK  140  A    between atoms: _381  and  _384
REMARK  141  A    between atoms: _384  and  _385
REMARK  142  A    between atoms: _388  and  _390
REMARK  143  A    between atoms: _390  and  _391
REMARK  144  A    between atoms: _390  and  _393
REMARK  145  A    between atoms: _393  and  _394
REMARK  146  A    between atoms: _397  and  _399
REMARK  147  A    between atoms: _399  and  _400
REMARK  148  A    between atoms: _399  and  _402
REMARK  149  A    between atoms: _404  and  _406
REMARK  150  A    between atoms: _406  and  _407
REMARK  151  A    between atoms: _406  and  _409
REMARK  152  A    between atoms: _412  and  _414
REMARK  153  A    between atoms: _414  and  _415
REMARK  154  A    between atoms: _414  and  _417
REMARK  155  A    between atoms: _417  and  _418
REMARK  156  A    between atoms: _428  and  _430
REMARK  157  A    between atoms: _430  and  _431
REMARK  158  A    between atoms: _430  and  _433
REMARK  159  A    between atoms: _433  and  _434
REMARK  160  A    between atoms: _439  and  _441
REMARK  161  A    between atoms: _441  and  _442
REMARK  162  A    between atoms: _441  and  _444
REMARK  163  A    between atoms: _444  and  _445
REMARK  164  A    between atoms: _445  and  _446
REMARK  165  A    between atoms: _446  and  _447
REMARK                            x       y       z     vdW  Elec       q    Type
REMARK                         _______ _______ _______ _____ _____    ______ ____
ROOT
ATOM      1  O   HOH     1      -2.542  -3.175  11.492  0.00  0.00    +0.000 OA
ENDROOT
TORSDOF 0
REMARK  Name = ../refined-set-2016/3oyq/3oyq_pocket.pdb
REMARK  165 active torsions:
REMARK  status: ('A' for Active; 'I' for Inactive)
REMARK    1  A    between atoms: _1  and  _3
REMARK    2  A    between atoms: _3  and  _4
REMARK    3  A    between atoms: _3  and  _6
REMARK    4  A    between atoms: _6  and  _7
REMARK    5  A    between atoms: _17  and  _19
REMARK    6  A    between atoms: _19  and  _20
REMARK    7  A    between atoms: _19  and  _22
REMARK    8  A    between atoms: _22  and  _23
REMARK    9  A    between atoms: _28  and  _29
REMARK   10  A    between atoms: _31  and  _33
REMARK   11  A    between atoms: _33  and  _34
REMARK   12  A    between atoms: _33  and  _36
REMARK   13  A    between atoms: _36  and  _37
REMARK   14  A    between atoms: _43  and  _45
REMARK   15  A    between atoms: _45  and  _46
REMARK   16  A    between atoms: _45  and  _48
REMARK   17  A    between atoms: _48  and  _49
REMARK   18  A    between atoms: _52  and  _53
REMARK   19  A    between atoms: _58  and  _60
REMARK   20  A    between atoms: _60  and  _61
REMARK   21  A    between atoms: _60  and  _63
REMARK   22  A    between atoms: _63  and  _64
REMARK   23  A    between atoms: _69  and  _71
REMARK   24  A    between atoms: _71  and  _72
REMARK   25  A    between atoms: _71  and  _74
REMARK   26  A    between atoms: _74  and  _75
REMARK   27  A    between atoms: _80  and  _82
REMARK   28  A    between atoms: _82  and  _83
REMARK   29  A    between atoms: _86  and  _88
REMARK   30  A    between atoms: _88  and  _89
REMARK   31  A    between atoms: _88  and  _91
REMARK   32  A    between atoms: _91  and  _92
REMARK   33  A    between atoms: _97  and  _99
REMARK   34  A    between atoms: _99  and  _100
REMARK   35  A    between atoms: _99  and  _102
REMARK   36  A    between atoms: _102  and  _103
REMARK   37  A    between atoms: _106  and  _108
REMARK   38  A    between atoms: _108  and  _109
REMARK   39  A    between atoms: _108  and  _111
REMARK   40  A    between atoms: _111  and  _112
REMARK   41  A    between atoms: _112  and  _113
REMARK   42  A    between atoms: _118  and  _120
REMARK   43  A    between atoms: _120  and  _121
REMARK   44  A    between atoms: _120  and  _123
REMARK   45  A    between atoms: _123  and  _124
REMARK   46  A    between atoms: _130  and  _132
REMARK   47  A    between atoms: _143  and  _146
REMARK   48  A    between atoms: _146  and  _147
REMARK   49  A    between atoms: _155  and  _156
REMARK   50  A    between atoms: _164  and  _166
REMARK   51  A    between atoms: _166  and  _167
REMARK   52  A    between atoms: _166  and  _169
REMARK   53  A    between atoms: _169  and  _170
REMARK   54  A    between atoms: _170  and  _171
REMARK   55  A    between atoms: _174  and  _176
REMARK   56  A    between atoms: _176  and  _177
REMARK   57  A    between atoms: _176  and  _179
REMARK   58  A    between atoms: _179  and  _180
REMARK   59  A    between atoms: _185  and  _187
REMARK   60  A    between atoms: _187  and  _188
REMARK   61  A    between atoms: _187  and  _190
REMARK   62  A    between atoms: _190  and  _191
REMARK   63  A    between atoms: _191  and  _192
REMARK   64  A    between atoms: _195  and  _197
REMARK   65  A    between atoms: _197  and  _198
REMARK   66  A    between atoms: _197  and  _200
REMARK   67  A    between atoms: _200  and  _201
REMARK   68  A    between atoms: _204  and  _206
REMARK   69  A    between atoms: _206  and  _207
REMARK   70  A    between atoms: _206  and  _209
REMARK   71  A    between atoms: _209  and  _210
REMARK   72  A    between atoms: _211  and  ZN_456
REMARK   73  A    between atoms: _215  and  _217
REMARK   74  A    between atoms: _217  and  _218
REMARK   75  A    between atoms: _217  and  _220
REMARK   76  A    between atoms: _220  and  _221
REMARK   77  A    between atoms: _224  and  _226
REMARK   78  A    between atoms: _226  and  _227
REMARK   79  A    between atoms: _226  and  _229
REMARK   80  A    between atoms: _232  and  _234
REMARK   81  A    between atoms: _234  and  _235
REMARK   82  A    between atoms: _234  and  _237
REMARK   83  A    between atoms: _237  and  _238
REMARK   84  A    between atoms: _243  and  _245
REMARK   85  A    between atoms: _245  and  _246
REMARK   86  A    between atoms: _245  and  _248
REMARK   87  A    between atoms: _248  and  _249
REMARK   88  A    between atoms: _255  and  _257
REMARK   89  A    between atoms: _257  and  _258
REMARK   90  A    between atoms: _260  and  _262
REMARK   91  A    between atoms: _262  and  _263
REMARK   92  A    between atoms: _262  and  _265
REMARK   93  A    between atoms: _265  and  _266
REMARK   94  A    between atoms: _266  and  _267
REMARK   95  A    between atoms: _267  and  _268
REMARK   96  A    between atoms: _268  and  _269
REMARK   97  A    between atoms: _273  and  _275
REMARK   98  A    between atoms: _275  and  _276
REMARK   99  A    between atoms: _275  and  _278
REMARK  100  A    between atoms: _281  and  _283
REMARK  101  A    between atoms: _283  and  _284
REMARK  102  A    between atoms: _283  and  _286
REMARK  103  A    between atoms: _286  and  _287
REMARK  104  A    between atoms: _287  and  _288
REMARK  105  A    between atoms: _293  and  _295
REMARK  106  A    between atoms: _295  and  _296
REMARK  107  A    between atoms: _295  and  _298
REMARK  108  A    between atoms: _298  and  _299
REMARK  109  A    between atoms: _302  and  _304
REMARK  110  A    between atoms: _304  and  _305
REMARK  111  A    between atoms: _308  and  _310
REMARK  112  A    between atoms: _310  and  _311
REMARK  113  A    between atoms: _310  and  _313
REMARK  114  A    between atoms: _316  and  _318
REMARK  115  A    between atoms: _318  and  _319
REMARK  116  A    between atoms: _318  and  _321
REMARK  117  A    between atoms: _321  and  _322
REMARK  118  A    between atoms: _325  and  _327
REMARK  119  A    between atoms: _327  and  _328
REMARK  120  A    between atoms: _330  and  _332
REMARK  121  A    between atoms: _332  and  _333
REMARK  122  A    between atoms: _332  and  _335
REMARK  123  A    between atoms: _335  and  _336
REMARK  124  A    between atoms: _338  and  _340
REMARK  125  A    between atoms: _340  and  _341
REMARK  126  A    between atoms: _340  and  _343
REMARK  127  A    between atoms: _343  and  _344
REMARK  128  A    between atoms: _347  and  _349
REMARK  129  A    between atoms: _349  and  _350
REMARK  130  A    between atoms: _349  and  _352
REMARK  131  A    between atoms: _352  and  _353
REMARK  132  A    between atoms: _356  and  _358
REMARK  133  A    between atoms: _358  and  _359
REMARK  134  A    between atoms: _358  and  _361
REMARK  135  A    between atoms: _361  and  _362
REMARK  136  A    between atoms: _366  and  _367
REMARK  137  A    between atoms: _373  and  _374
REMARK  138  A    between atoms: _379  and  _381
REMARK  139  A    between atoms: _381  and  _382
REMARK  140  A    between atoms: _381  and  _384
REMARK  141  A    between atoms: _384  and  _385
REMARK  142  A    between atoms: _388  and  _390
REMARK  143  A    between atoms: _390  and  _391
REMARK  144  A    between atoms: _390  and  _393
REMARK  145  A    between atoms: _393  and  _394
REMARK  146  A    between atoms: _397  and  _399
REMARK  147  A    between atoms: _399  and  _400
REMARK  148  A    between atoms: _399  and  _402
REMARK  149  A    between atoms: _404  and  _406
REMARK  150  A    between atoms: _406  and  _407
REMARK  151  A    between atoms: _406  and  _409
REMARK  152  A    between atoms: _412  and  _414
REMARK  153  A    between atoms: _414  and  _415
REMARK  154  A    between atoms: _414  and  _417
REMARK  155  A    between atoms: _417  and  _418
REMARK  156  A    between atoms: _428  and  _430
REMARK  157  A    between atoms: _430  and  _431
REMARK  158  A    between atoms: _430  and  _433
REMARK  159  A    between atoms: _433  and  _434
REMARK  160  A    between atoms: _439  and  _441
REMARK  161  A    between atoms: _441  and  _442
REMARK  162  A    between atoms: _441  and  _444
REMARK  163  A    between atoms: _444  and  _445
REMARK  164  A    between atoms: _445  and  _446
REMARK  165  A    between atoms: _446  and  _447
REMARK                            x       y       z     vdW  Elec       q    Type
REMARK                         _______ _______ _______ _____ _____    ______ ____
ROOT
ATOM      1  O   HOH     1      -0.704   3.763  10.602  0.00  0.00    +0.000 OA
ENDROOT
TORSDOF 0
