REMARK  Name = ../refined-set-2016/3mzc/3mzc_pocket.pdb
REMARK  150 active torsions:
REMARK  status: ('A' for Active; 'I' for Inactive)
REMARK    1  A    between atoms: _1  and  _3
REMARK    2  A    between atoms: _3  and  _4
REMARK    3  A    between atoms: _3  and  _6
REMARK    4  A    between atoms: _6  and  _7
REMARK    5  A    between atoms: _17  and  _19
REMARK    6  A    between atoms: _19  and  _20
REMARK    7  A    between atoms: _19  and  _22
REMARK    8  A    between atoms: _22  and  _23
REMARK    9  A    between atoms: _28  and  _29
REMARK   10  A    between atoms: _31  and  _33
REMARK   11  A    between atoms: _33  and  _34
REMARK   12  A    between atoms: _33  and  _36
REMARK   13  A    between atoms: _36  and  _37
REMARK   14  A    between atoms: _40  and  _41
REMARK   15  A    between atoms: _46  and  _48
REMARK   16  A    between atoms: _48  and  _49
REMARK   17  A    between atoms: _48  and  _51
REMARK   18  A    between atoms: _51  and  _52
REMARK   19  A    between atoms: _57  and  _59
REMARK   20  A    between atoms: _59  and  _60
REMARK   21  A    between atoms: _63  and  _65
REMARK   22  A    between atoms: _65  and  _66
REMARK   23  A    between atoms: _65  and  _68
REMARK   24  A    between atoms: _68  and  _69
REMARK   25  A    between atoms: _74  and  _76
REMARK   26  A    between atoms: _76  and  _77
REMARK   27  A    between atoms: _76  and  _79
REMARK   28  A    between atoms: _79  and  _80
REMARK   29  A    between atoms: _83  and  _85
REMARK   30  A    between atoms: _85  and  _86
REMARK   31  A    between atoms: _85  and  _88
REMARK   32  A    between atoms: _88  and  _89
REMARK   33  A    between atoms: _89  and  _90
REMARK   34  A    between atoms: _95  and  _97
REMARK   35  A    between atoms: _97  and  _98
REMARK   36  A    between atoms: _97  and  _100
REMARK   37  A    between atoms: _100  and  _101
REMARK   38  A    between atoms: _107  and  _109
REMARK   39  A    between atoms: _120  and  _123
REMARK   40  A    between atoms: _123  and  _124
REMARK   41  A    between atoms: _132  and  _133
REMARK   42  A    between atoms: _141  and  _143
REMARK   43  A    between atoms: _143  and  _144
REMARK   44  A    between atoms: _143  and  _146
REMARK   45  A    between atoms: _146  and  _147
REMARK   46  A    between atoms: _147  and  _148
REMARK   47  A    between atoms: _151  and  _153
REMARK   48  A    between atoms: _153  and  _154
REMARK   49  A    between atoms: _153  and  _156
REMARK   50  A    between atoms: _156  and  _157
REMARK   51  A    between atoms: _162  and  _164
REMARK   52  A    between atoms: _164  and  _165
REMARK   53  A    between atoms: _164  and  _167
REMARK   54  A    between atoms: _167  and  _168
REMARK   55  A    between atoms: _168  and  _169
REMARK   56  A    between atoms: _172  and  _174
REMARK   57  A    between atoms: _174  and  _175
REMARK   58  A    between atoms: _174  and  _177
REMARK   59  A    between atoms: _177  and  _178
REMARK   60  A    between atoms: _181  and  _183
REMARK   61  A    between atoms: _183  and  _184
REMARK   62  A    between atoms: _183  and  _186
REMARK   63  A    between atoms: _186  and  _187
REMARK   64  A    between atoms: _188  and  ZN_420
REMARK   65  A    between atoms: _192  and  _194
REMARK   66  A    between atoms: _194  and  _195
REMARK   67  A    between atoms: _194  and  _197
REMARK   68  A    between atoms: _197  and  _198
REMARK   69  A    between atoms: _201  and  _203
REMARK   70  A    between atoms: _203  and  _204
REMARK   71  A    between atoms: _203  and  _206
REMARK   72  A    between atoms: _209  and  _211
REMARK   73  A    between atoms: _211  and  _212
REMARK   74  A    between atoms: _211  and  _214
REMARK   75  A    between atoms: _214  and  _215
REMARK   76  A    between atoms: _220  and  _222
REMARK   77  A    between atoms: _222  and  _223
REMARK   78  A    between atoms: _222  and  _225
REMARK   79  A    between atoms: _225  and  _226
REMARK   80  A    between atoms: _232  and  _234
REMARK   81  A    between atoms: _234  and  _235
REMARK   82  A    between atoms: _237  and  _239
REMARK   83  A    between atoms: _239  and  _240
REMARK   84  A    between atoms: _239  and  _242
REMARK   85  A    between atoms: _245  and  _247
REMARK   86  A    between atoms: _247  and  _248
REMARK   87  A    between atoms: _247  and  _250
REMARK   88  A    between atoms: _250  and  _251
REMARK   89  A    between atoms: _251  and  _252
REMARK   90  A    between atoms: _257  and  _259
REMARK   91  A    between atoms: _259  and  _260
REMARK   92  A    between atoms: _259  and  _262
REMARK   93  A    between atoms: _262  and  _263
REMARK   94  A    between atoms: _266  and  _268
REMARK   95  A    between atoms: _268  and  _269
REMARK   96  A    between atoms: _272  and  _274
REMARK   97  A    between atoms: _274  and  _275
REMARK   98  A    between atoms: _274  and  _277
REMARK   99  A    between atoms: _280  and  _282
REMARK  100  A    between atoms: _282  and  _283
REMARK  101  A    between atoms: _282  and  _285
REMARK  102  A    between atoms: _285  and  _286
REMARK  103  A    between atoms: _289  and  _291
REMARK  104  A    between atoms: _291  and  _292
REMARK  105  A    between atoms: _294  and  _296
REMARK  106  A    between atoms: _296  and  _297
REMARK  107  A    between atoms: _296  and  _299
REMARK  108  A    between atoms: _299  and  _300
REMARK  109  A    between atoms: _302  and  _304
REMARK  110  A    between atoms: _304  and  _305
REMARK  111  A    between atoms: _304  and  _307
REMARK  112  A    between atoms: _307  and  _308
REMARK  113  A    between atoms: _311  and  _313
REMARK  114  A    between atoms: _313  and  _314
REMARK  115  A    between atoms: _313  and  _316
REMARK  116  A    between atoms: _316  and  _317
REMARK  117  A    between atoms: _320  and  _322
REMARK  118  A    between atoms: _322  and  _323
REMARK  119  A    between atoms: _322  and  _325
REMARK  120  A    between atoms: _325  and  _326
REMARK  121  A    between atoms: _330  and  _331
REMARK  122  A    between atoms: _337  and  _338
REMARK  123  A    between atoms: _343  and  _345
REMARK  124  A    between atoms: _345  and  _346
REMARK  125  A    between atoms: _345  and  _348
REMARK  126  A    between atoms: _348  and  _349
REMARK  127  A    between atoms: _352  and  _354
REMARK  128  A    between atoms: _354  and  _355
REMARK  129  A    between atoms: _354  and  _357
REMARK  130  A    between atoms: _357  and  _358
REMARK  131  A    between atoms: _361  and  _363
REMARK  132  A    between atoms: _363  and  _364
REMARK  133  A    between atoms: _363  and  _366
REMARK  134  A    between atoms: _368  and  _370
REMARK  135  A    between atoms: _370  and  _371
REMARK  136  A    between atoms: _370  and  _373
REMARK  137  A    between atoms: _376  and  _378
REMARK  138  A    between atoms: _378  and  _379
REMARK  139  A    between atoms: _378  and  _381
REMARK  140  A    between atoms: _381  and  _382
REMARK  141  A    between atoms: _392  and  _394
REMARK  142  A    between atoms: _394  and  _395
REMARK  143  A    between atoms: _394  and  _397
REMARK  144  A    between atoms: _397  and  _398
REMARK  145  A    between atoms: _403  and  _405
REMARK  146  A    between atoms: _405  and  _406
REMARK  147  A    between atoms: _405  and  _408
REMARK  148  A    between atoms: _408  and  _409
REMARK  149  A    between atoms: _409  and  _410
REMARK  150  A    between atoms: _410  and  _411
REMARK                            x       y       z     vdW  Elec       q    Type
REMARK                         _______ _______ _______ _____ _____    ______ ____
ROOT
ATOM      1  CG  TRP A   1       6.044   0.103  12.197  0.00  0.00    -0.002 A 
ATOM      2  CD2 TRP A   1       4.688  -0.340  12.140  0.00  0.00    +0.013 A 
ATOM      3  CE3 TRP A   1       4.059  -1.564  12.373  0.00  0.00    +0.001 A 
ATOM      4  CZ3 TRP A   1       2.681  -1.641  12.243  0.00  0.00    +0.000 A 
ATOM      5  CH2 TRP A   1       1.934  -0.521  11.865  0.00  0.00    +0.001 A 
ATOM      6  CZ2 TRP A   1       2.520   0.684  11.630  0.00  0.00    +0.017 A 
ATOM      7  CE2 TRP A   1       3.903   0.770  11.770  0.00  0.00    +0.056 A 
ATOM      8  NE1 TRP A   1       4.756   1.834  11.609  0.00  0.00    -0.352 N 
ATOM      9  HE1 TRP A   1       4.473   2.797  11.335  0.00  0.00    +0.166 HD
ATOM     10  CD1 TRP A   1       6.028   1.431  11.864  0.00  0.00    +0.068 A 
ENDROOT
BRANCH   1  11
ATOM     11  CB  TRP A   1       7.228  -0.722  12.538  0.00  0.00    +0.053 C 
BRANCH  11  12
ATOM     12  CA  TRP A   1       7.863  -1.416  11.318  0.00  0.00    +0.137 C 
BRANCH  12  13
ATOM     13  N   TRP A   1       8.536  -0.441  10.465  0.00  0.00    -0.239 NA
ATOM     14  H   TRP A   1       8.331   0.570  10.601  0.00  0.00    +0.142 HD
ENDBRANCH  12  13
BRANCH  12  15
ATOM     15  C   TRP A   1       6.813  -2.198  10.548  0.00  0.00    +0.224 C 
ATOM     16  O   TRP A   1       6.275  -1.745   9.537  0.00  0.00    -0.287 OA
ENDBRANCH  12  15
ENDBRANCH  11  12
ENDBRANCH   1  11
TORSDOF 4
REMARK  Name = ../refined-set-2016/3mzc/3mzc_pocket.pdb
REMARK  150 active torsions:
REMARK  status: ('A' for Active; 'I' for Inactive)
REMARK    1  A    between atoms: _1  and  _3
REMARK    2  A    between atoms: _3  and  _4
REMARK    3  A    between atoms: _3  and  _6
REMARK    4  A    between atoms: _6  and  _7
REMARK    5  A    between atoms: _17  and  _19
REMARK    6  A    between atoms: _19  and  _20
REMARK    7  A    between atoms: _19  and  _22
REMARK    8  A    between atoms: _22  and  _23
REMARK    9  A    between atoms: _28  and  _29
REMARK   10  A    between atoms: _31  and  _33
REMARK   11  A    between atoms: _33  and  _34
REMARK   12  A    between atoms: _33  and  _36
REMARK   13  A    between atoms: _36  and  _37
REMARK   14  A    between atoms: _40  and  _41
REMARK   15  A    between atoms: _46  and  _48
REMARK   16  A    between atoms: _48  and  _49
REMARK   17  A    between atoms: _48  and  _51
REMARK   18  A    between atoms: _51  and  _52
REMARK   19  A    between atoms: _57  and  _59
REMARK   20  A    between atoms: _59  and  _60
REMARK   21  A    between atoms: _63  and  _65
REMARK   22  A    between atoms: _65  and  _66
REMARK   23  A    between atoms: _65  and  _68
REMARK   24  A    between atoms: _68  and  _69
REMARK   25  A    between atoms: _74  and  _76
REMARK   26  A    between atoms: _76  and  _77
REMARK   27  A    between atoms: _76  and  _79
REMARK   28  A    between atoms: _79  and  _80
REMARK   29  A    between atoms: _83  and  _85
REMARK   30  A    between atoms: _85  and  _86
REMARK   31  A    between atoms: _85  and  _88
REMARK   32  A    between atoms: _88  and  _89
REMARK   33  A    between atoms: _89  and  _90
REMARK   34  A    between atoms: _95  and  _97
REMARK   35  A    between atoms: _97  and  _98
REMARK   36  A    between atoms: _97  and  _100
REMARK   37  A    between atoms: _100  and  _101
REMARK   38  A    between atoms: _107  and  _109
REMARK   39  A    between atoms: _120  and  _123
REMARK   40  A    between atoms: _123  and  _124
REMARK   41  A    between atoms: _132  and  _133
REMARK   42  A    between atoms: _141  and  _143
REMARK   43  A    between atoms: _143  and  _144
REMARK   44  A    between atoms: _143  and  _146
REMARK   45  A    between atoms: _146  and  _147
REMARK   46  A    between atoms: _147  and  _148
REMARK   47  A    between atoms: _151  and  _153
REMARK   48  A    between atoms: _153  and  _154
REMARK   49  A    between atoms: _153  and  _156
REMARK   50  A    between atoms: _156  and  _157
REMARK   51  A    between atoms: _162  and  _164
REMARK   52  A    between atoms: _164  and  _165
REMARK   53  A    between atoms: _164  and  _167
REMARK   54  A    between atoms: _167  and  _168
REMARK   55  A    between atoms: _168  and  _169
REMARK   56  A    between atoms: _172  and  _174
REMARK   57  A    between atoms: _174  and  _175
REMARK   58  A    between atoms: _174  and  _177
REMARK   59  A    between atoms: _177  and  _178
REMARK   60  A    between atoms: _181  and  _183
REMARK   61  A    between atoms: _183  and  _184
REMARK   62  A    between atoms: _183  and  _186
REMARK   63  A    between atoms: _186  and  _187
REMARK   64  A    between atoms: _188  and  ZN_420
REMARK   65  A    between atoms: _192  and  _194
REMARK   66  A    between atoms: _194  and  _195
REMARK   67  A    between atoms: _194  and  _197
REMARK   68  A    between atoms: _197  and  _198
REMARK   69  A    between atoms: _201  and  _203
REMARK   70  A    between atoms: _203  and  _204
REMARK   71  A    between atoms: _203  and  _206
REMARK   72  A    between atoms: _209  and  _211
REMARK   73  A    between atoms: _211  and  _212
REMARK   74  A    between atoms: _211  and  _214
REMARK   75  A    between atoms: _214  and  _215
REMARK   76  A    between atoms: _220  and  _222
REMARK   77  A    between atoms: _222  and  _223
REMARK   78  A    between atoms: _222  and  _225
REMARK   79  A    between atoms: _225  and  _226
REMARK   80  A    between atoms: _232  and  _234
REMARK   81  A    between atoms: _234  and  _235
REMARK   82  A    between atoms: _237  and  _239
REMARK   83  A    between atoms: _239  and  _240
REMARK   84  A    between atoms: _239  and  _242
REMARK   85  A    between atoms: _245  and  _247
REMARK   86  A    between atoms: _247  and  _248
REMARK   87  A    between atoms: _247  and  _250
REMARK   88  A    between atoms: _250  and  _251
REMARK   89  A    between atoms: _251  and  _252
REMARK   90  A    between atoms: _257  and  _259
REMARK   91  A    between atoms: _259  and  _260
REMARK   92  A    between atoms: _259  and  _262
REMARK   93  A    between atoms: _262  and  _263
REMARK   94  A    between atoms: _266  and  _268
REMARK   95  A    between atoms: _268  and  _269
REMARK   96  A    between atoms: _272  and  _274
REMARK   97  A    between atoms: _274  and  _275
REMARK   98  A    between atoms: _274  and  _277
REMARK   99  A    between atoms: _280  and  _282
REMARK  100  A    between atoms: _282  and  _283
REMARK  101  A    between atoms: _282  and  _285
REMARK  102  A    between atoms: _285  and  _286
REMARK  103  A    between atoms: _289  and  _291
REMARK  104  A    between atoms: _291  and  _292
REMARK  105  A    between atoms: _294  and  _296
REMARK  106  A    between atoms: _296  and  _297
REMARK  107  A    between atoms: _296  and  _299
REMARK  108  A    between atoms: _299  and  _300
REMARK  109  A    between atoms: _302  and  _304
REMARK  110  A    between atoms: _304  and  _305
REMARK  111  A    between atoms: _304  and  _307
REMARK  112  A    between atoms: _307  and  _308
REMARK  113  A    between atoms: _311  and  _313
REMARK  114  A    between atoms: _313  and  _314
REMARK  115  A    between atoms: _313  and  _316
REMARK  116  A    between atoms: _316  and  _317
REMARK  117  A    between atoms: _320  and  _322
REMARK  118  A    between atoms: _322  and  _323
REMARK  119  A    between atoms: _322  and  _325
REMARK  120  A    between atoms: _325  and  _326
REMARK  121  A    between atoms: _330  and  _331
REMARK  122  A    between atoms: _337  and  _338
REMARK  123  A    between atoms: _343  and  _345
REMARK  124  A    between atoms: _345  and  _346
REMARK  125  A    between atoms: _345  and  _348
REMARK  126  A    between atoms: _348  and  _349
REMARK  127  A    between atoms: _352  and  _354
REMARK  128  A    between atoms: _354  and  _355
REMARK  129  A    between atoms: _354  and  _357
REMARK  130  A    between atoms: _357  and  _358
REMARK  131  A    between atoms: _361  and  _363
REMARK  132  A    between atoms: _363  and  _364
REMARK  133  A    between atoms: _363  and  _366
REMARK  134  A    between atoms: _368  and  _370
REMARK  135  A    between atoms: _370  and  _371
REMARK  136  A    between atoms: _370  and  _373
REMARK  137  A    between atoms: _376  and  _378
REMARK  138  A    between atoms: _378  and  _379
REMARK  139  A    between atoms: _378  and  _381
REMARK  140  A    between atoms: _381  and  _382
REMARK  141  A    between atoms: _392  and  _394
REMARK  142  A    between atoms: _394  and  _395
REMARK  143  A    between atoms: _394  and  _397
REMARK  144  A    between atoms: _397  and  _398
REMARK  145  A    between atoms: _403  and  _405
REMARK  146  A    between atoms: _405  and  _406
REMARK  147  A    between atoms: _405  and  _408
REMARK  148  A    between atoms: _408  and  _409
REMARK  149  A    between atoms: _409  and  _410
REMARK  150  A    between atoms: _410  and  _411
REMARK                            x       y       z     vdW  Elec       q    Type
REMARK                         _______ _______ _______ _____ _____    ______ ____
ROOT
ATOM      1  CG  TYR A   1       2.076  -6.940  11.830  0.00  0.00    -0.020 A 
ATOM      2  CD2 TYR A   1       1.644  -6.967  13.142  0.00  0.00    -0.001 A 
ATOM      3  CE2 TYR A   1       0.806  -5.974  13.633  0.00  0.00    +0.036 A 
ATOM      4  CZ  TYR A   1       0.383  -4.970  12.782  0.00  0.00    +0.134 A 
ATOM      5  CE1 TYR A   1       0.795  -4.933  11.475  0.00  0.00    +0.036 A 
ATOM      6  CD1 TYR A   1       1.635  -5.907  11.009  0.00  0.00    -0.001 A 
ENDROOT
BRANCH   4   7
ATOM      7  OH  TYR A   1      -0.451  -4.000  13.253  0.00  0.00    -0.506 OA
ATOM      8  HH  TYR A   1      -0.650  -4.173  14.207  0.00  0.00    +0.292 HD
ENDBRANCH   4   7
BRANCH   1   9
ATOM      9  CB  TYR A   1       3.009  -8.018  11.302  0.00  0.00    +0.051 C 
BRANCH   9  10
ATOM     10  CA  TYR A   1       4.491  -7.712  11.530  0.00  0.00    +0.137 C 
BRANCH  10  11
ATOM     11  N   TYR A   1       4.896  -6.535  10.775  0.00  0.00    -0.239 NA
ATOM     12  H   TYR A   1       4.976  -6.597   9.740  0.00  0.00    +0.142 HD
ENDBRANCH  10  11
BRANCH  10  13
ATOM     13  C   TYR A   1       5.343  -8.927  11.181  0.00  0.00    +0.224 C 
ATOM     14  O   TYR A   1       5.006 -10.055  11.539  0.00  0.00    -0.287 OA
ENDBRANCH  10  13
ENDBRANCH   9  10
ENDBRANCH   1   9
TORSDOF 5
REMARK  Name = ../refined-set-2016/3mzc/3mzc_pocket.pdb
REMARK  150 active torsions:
REMARK  status: ('A' for Active; 'I' for Inactive)
REMARK    1  A    between atoms: _1  and  _3
REMARK    2  A    between atoms: _3  and  _4
REMARK    3  A    between atoms: _3  and  _6
REMARK    4  A    between atoms: _6  and  _7
REMARK    5  A    between atoms: _17  and  _19
REMARK    6  A    between atoms: _19  and  _20
REMARK    7  A    between atoms: _19  and  _22
REMARK    8  A    between atoms: _22  and  _23
REMARK    9  A    between atoms: _28  and  _29
REMARK   10  A    between atoms: _31  and  _33
REMARK   11  A    between atoms: _33  and  _34
REMARK   12  A    between atoms: _33  and  _36
REMARK   13  A    between atoms: _36  and  _37
REMARK   14  A    between atoms: _40  and  _41
REMARK   15  A    between atoms: _46  and  _48
REMARK   16  A    between atoms: _48  and  _49
REMARK   17  A    between atoms: _48  and  _51
REMARK   18  A    between atoms: _51  and  _52
REMARK   19  A    between atoms: _57  and  _59
REMARK   20  A    between atoms: _59  and  _60
REMARK   21  A    between atoms: _63  and  _65
REMARK   22  A    between atoms: _65  and  _66
REMARK   23  A    between atoms: _65  and  _68
REMARK   24  A    between atoms: _68  and  _69
REMARK   25  A    between atoms: _74  and  _76
REMARK   26  A    between atoms: _76  and  _77
REMARK   27  A    between atoms: _76  and  _79
REMARK   28  A    between atoms: _79  and  _80
REMARK   29  A    between atoms: _83  and  _85
REMARK   30  A    between atoms: _85  and  _86
REMARK   31  A    between atoms: _85  and  _88
REMARK   32  A    between atoms: _88  and  _89
REMARK   33  A    between atoms: _89  and  _90
REMARK   34  A    between atoms: _95  and  _97
REMARK   35  A    between atoms: _97  and  _98
REMARK   36  A    between atoms: _97  and  _100
REMARK   37  A    between atoms: _100  and  _101
REMARK   38  A    between atoms: _107  and  _109
REMARK   39  A    between atoms: _120  and  _123
REMARK   40  A    between atoms: _123  and  _124
REMARK   41  A    between atoms: _132  and  _133
REMARK   42  A    between atoms: _141  and  _143
REMARK   43  A    between atoms: _143  and  _144
REMARK   44  A    between atoms: _143  and  _146
REMARK   45  A    between atoms: _146  and  _147
REMARK   46  A    between atoms: _147  and  _148
REMARK   47  A    between atoms: _151  and  _153
REMARK   48  A    between atoms: _153  and  _154
REMARK   49  A    between atoms: _153  and  _156
REMARK   50  A    between atoms: _156  and  _157
REMARK   51  A    between atoms: _162  and  _164
REMARK   52  A    between atoms: _164  and  _165
REMARK   53  A    between atoms: _164  and  _167
REMARK   54  A    between atoms: _167  and  _168
REMARK   55  A    between atoms: _168  and  _169
REMARK   56  A    between atoms: _172  and  _174
REMARK   57  A    between atoms: _174  and  _175
REMARK   58  A    between atoms: _174  and  _177
REMARK   59  A    between atoms: _177  and  _178
REMARK   60  A    between atoms: _181  and  _183
REMARK   61  A    between atoms: _183  and  _184
REMARK   62  A    between atoms: _183  and  _186
REMARK   63  A    between atoms: _186  and  _187
REMARK   64  A    between atoms: _188  and  ZN_420
REMARK   65  A    between atoms: _192  and  _194
REMARK   66  A    between atoms: _194  and  _195
REMARK   67  A    between atoms: _194  and  _197
REMARK   68  A    between atoms: _197  and  _198
REMARK   69  A    between atoms: _201  and  _203
REMARK   70  A    between atoms: _203  and  _204
REMARK   71  A    between atoms: _203  and  _206
REMARK   72  A    between atoms: _209  and  _211
REMARK   73  A    between atoms: _211  and  _212
REMARK   74  A    between atoms: _211  and  _214
REMARK   75  A    between atoms: _214  and  _215
REMARK   76  A    between atoms: _220  and  _222
REMARK   77  A    between atoms: _222  and  _223
REMARK   78  A    between atoms: _222  and  _225
REMARK   79  A    between atoms: _225  and  _226
REMARK   80  A    between atoms: _232  and  _234
REMARK   81  A    between atoms: _234  and  _235
REMARK   82  A    between atoms: _237  and  _239
REMARK   83  A    between atoms: _239  and  _240
REMARK   84  A    between atoms: _239  and  _242
REMARK   85  A    between atoms: _245  and  _247
REMARK   86  A    between atoms: _247  and  _248
REMARK   87  A    between atoms: _247  and  _250
REMARK   88  A    between atoms: _250  and  _251
REMARK   89  A    between atoms: _251  and  _252
REMARK   90  A    between atoms: _257  and  _259
REMARK   91  A    between atoms: _259  and  _260
REMARK   92  A    between atoms: _259  and  _262
REMARK   93  A    between atoms: _262  and  _263
REMARK   94  A    between atoms: _266  and  _268
REMARK   95  A    between atoms: _268  and  _269
REMARK   96  A    between atoms: _272  and  _274
REMARK   97  A    between atoms: _274  and  _275
REMARK   98  A    between atoms: _274  and  _277
REMARK   99  A    between atoms: _280  and  _282
REMARK  100  A    between atoms: _282  and  _283
REMARK  101  A    between atoms: _282  and  _285
REMARK  102  A    between atoms: _285  and  _286
REMARK  103  A    between atoms: _289  and  _291
REMARK  104  A    between atoms: _291  and  _292
REMARK  105  A    between atoms: _294  and  _296
REMARK  106  A    between atoms: _296  and  _297
REMARK  107  A    between atoms: _296  and  _299
REMARK  108  A    between atoms: _299  and  _300
REMARK  109  A    between atoms: _302  and  _304
REMARK  110  A    between atoms: _304  and  _305
REMARK  111  A    between atoms: _304  and  _307
REMARK  112  A    between atoms: _307  and  _308
REMARK  113  A    between atoms: _311  and  _313
REMARK  114  A    between atoms: _313  and  _314
REMARK  115  A    between atoms: _313  and  _316
REMARK  116  A    between atoms: _316  and  _317
REMARK  117  A    between atoms: _320  and  _322
REMARK  118  A    between atoms: _322  and  _323
REMARK  119  A    between atoms: _322  and  _325
REMARK  120  A    between atoms: _325  and  _326
REMARK  121  A    between atoms: _330  and  _331
REMARK  122  A    between atoms: _337  and  _338
REMARK  123  A    between atoms: _343  and  _345
REMARK  124  A    between atoms: _345  and  _346
REMARK  125  A    between atoms: _345  and  _348
REMARK  126  A    between atoms: _348  and  _349
REMARK  127  A    between atoms: _352  and  _354
REMARK  128  A    between atoms: _354  and  _355
REMARK  129  A    between atoms: _354  and  _357
REMARK  130  A    between atoms: _357  and  _358
REMARK  131  A    between atoms: _361  and  _363
REMARK  132  A    between atoms: _363  and  _364
REMARK  133  A    between atoms: _363  and  _366
REMARK  134  A    between atoms: _368  and  _370
REMARK  135  A    between atoms: _370  and  _371
REMARK  136  A    between atoms: _370  and  _373
REMARK  137  A    between atoms: _376  and  _378
REMARK  138  A    between atoms: _378  and  _379
REMARK  139  A    between atoms: _378  and  _381
REMARK  140  A    between atoms: _381  and  _382
REMARK  141  A    between atoms: _392  and  _394
REMARK  142  A    between atoms: _394  and  _395
REMARK  143  A    between atoms: _394  and  _397
REMARK  144  A    between atoms: _397  and  _398
REMARK  145  A    between atoms: _403  and  _405
REMARK  146  A    between atoms: _405  and  _406
REMARK  147  A    between atoms: _405  and  _408
REMARK  148  A    between atoms: _408  and  _409
REMARK  149  A    between atoms: _409  and  _410
REMARK  150  A    between atoms: _410  and  _411
REMARK                            x       y       z     vdW  Elec       q    Type
REMARK                         _______ _______ _______ _____ _____    ______ ____
ROOT
ATOM      1  C   SER A   1      -2.259  -3.027  23.136  0.00  0.00    +0.244 C 
ATOM      2  N   PRO A   2      -2.902  -4.156  22.875  0.00  0.00    -0.273 N 
ATOM      3  CA  PRO A   2      -4.050  -4.694  23.600  0.00  0.00    +0.140 C 
ATOM      4  CB  PRO A   2      -4.580  -5.734  22.616  0.00  0.00    +0.030 C 
ATOM      5  CG  PRO A   2      -3.299  -6.296  22.037  0.00  0.00    +0.024 C 
ATOM      6  CD  PRO A   2      -2.425  -5.061  21.819  0.00  0.00    +0.094 C 
ATOM      7  O   SER A   1      -1.302  -2.676  22.477  0.00  0.00    -0.273 OA
ENDROOT
BRANCH   3   8
ATOM      8  C   PRO A   2      -3.641  -5.377  24.906  0.00  0.00    +0.227 C 
ATOM      9  O   PRO A   2      -2.443  -5.397  25.242  0.00  0.00    -0.286 OA
ENDBRANCH   3   8
BRANCH   1  10
ATOM     10  CA  SER A   1      -2.781  -2.174  24.280  0.00  0.00    +0.175 C 
BRANCH  10  11
ATOM     11  N   SER A   1      -1.716  -1.309  24.758  0.00  0.00    -0.236 NA
ATOM     12  H   SER A   1      -1.201  -0.731  24.064  0.00  0.00    +0.142 HD
ENDBRANCH  10  11
BRANCH  10  13
ATOM     13  CB  SER A   1      -3.922  -1.326  23.750  0.00  0.00    +0.163 C 
BRANCH  13  14
ATOM     14  OG  SER A   1      -4.521  -0.652  24.828  0.00  0.00    -0.380 OA
ATOM     15  H   SER A   1      -4.867  -1.314  25.478  0.00  0.00    +0.211 HD
ENDBRANCH  13  14
ENDBRANCH  10  13
ENDBRANCH   1  10
TORSDOF 5
REMARK  Name = ../refined-set-2016/3mzc/3mzc_pocket.pdb
REMARK  150 active torsions:
REMARK  status: ('A' for Active; 'I' for Inactive)
REMARK    1  A    between atoms: _1  and  _3
REMARK    2  A    between atoms: _3  and  _4
REMARK    3  A    between atoms: _3  and  _6
REMARK    4  A    between atoms: _6  and  _7
REMARK    5  A    between atoms: _17  and  _19
REMARK    6  A    between atoms: _19  and  _20
REMARK    7  A    between atoms: _19  and  _22
REMARK    8  A    between atoms: _22  and  _23
REMARK    9  A    between atoms: _28  and  _29
REMARK   10  A    between atoms: _31  and  _33
REMARK   11  A    between atoms: _33  and  _34
REMARK   12  A    between atoms: _33  and  _36
REMARK   13  A    between atoms: _36  and  _37
REMARK   14  A    between atoms: _40  and  _41
REMARK   15  A    between atoms: _46  and  _48
REMARK   16  A    between atoms: _48  and  _49
REMARK   17  A    between atoms: _48  and  _51
REMARK   18  A    between atoms: _51  and  _52
REMARK   19  A    between atoms: _57  and  _59
REMARK   20  A    between atoms: _59  and  _60
REMARK   21  A    between atoms: _63  and  _65
REMARK   22  A    between atoms: _65  and  _66
REMARK   23  A    between atoms: _65  and  _68
REMARK   24  A    between atoms: _68  and  _69
REMARK   25  A    between atoms: _74  and  _76
REMARK   26  A    between atoms: _76  and  _77
REMARK   27  A    between atoms: _76  and  _79
REMARK   28  A    between atoms: _79  and  _80
REMARK   29  A    between atoms: _83  and  _85
REMARK   30  A    between atoms: _85  and  _86
REMARK   31  A    between atoms: _85  and  _88
REMARK   32  A    between atoms: _88  and  _89
REMARK   33  A    between atoms: _89  and  _90
REMARK   34  A    between atoms: _95  and  _97
REMARK   35  A    between atoms: _97  and  _98
REMARK   36  A    between atoms: _97  and  _100
REMARK   37  A    between atoms: _100  and  _101
REMARK   38  A    between atoms: _107  and  _109
REMARK   39  A    between atoms: _120  and  _123
REMARK   40  A    between atoms: _123  and  _124
REMARK   41  A    between atoms: _132  and  _133
REMARK   42  A    between atoms: _141  and  _143
REMARK   43  A    between atoms: _143  and  _144
REMARK   44  A    between atoms: _143  and  _146
REMARK   45  A    between atoms: _146  and  _147
REMARK   46  A    between atoms: _147  and  _148
REMARK   47  A    between atoms: _151  and  _153
REMARK   48  A    between atoms: _153  and  _154
REMARK   49  A    between atoms: _153  and  _156
REMARK   50  A    between atoms: _156  and  _157
REMARK   51  A    between atoms: _162  and  _164
REMARK   52  A    between atoms: _164  and  _165
REMARK   53  A    between atoms: _164  and  _167
REMARK   54  A    between atoms: _167  and  _168
REMARK   55  A    between atoms: _168  and  _169
REMARK   56  A    between atoms: _172  and  _174
REMARK   57  A    between atoms: _174  and  _175
REMARK   58  A    between atoms: _174  and  _177
REMARK   59  A    between atoms: _177  and  _178
REMARK   60  A    between atoms: _181  and  _183
REMARK   61  A    between atoms: _183  and  _184
REMARK   62  A    between atoms: _183  and  _186
REMARK   63  A    between atoms: _186  and  _187
REMARK   64  A    between atoms: _188  and  ZN_420
REMARK   65  A    between atoms: _192  and  _194
REMARK   66  A    between atoms: _194  and  _195
REMARK   67  A    between atoms: _194  and  _197
REMARK   68  A    between atoms: _197  and  _198
REMARK   69  A    between atoms: _201  and  _203
REMARK   70  A    between atoms: _203  and  _204
REMARK   71  A    between atoms: _203  and  _206
REMARK   72  A    between atoms: _209  and  _211
REMARK   73  A    between atoms: _211  and  _212
REMARK   74  A    between atoms: _211  and  _214
REMARK   75  A    between atoms: _214  and  _215
REMARK   76  A    between atoms: _220  and  _222
REMARK   77  A    between atoms: _222  and  _223
REMARK   78  A    between atoms: _222  and  _225
REMARK   79  A    between atoms: _225  and  _226
REMARK   80  A    between atoms: _232  and  _234
REMARK   81  A    between atoms: _234  and  _235
REMARK   82  A    between atoms: _237  and  _239
REMARK   83  A    between atoms: _239  and  _240
REMARK   84  A    between atoms: _239  and  _242
REMARK   85  A    between atoms: _245  and  _247
REMARK   86  A    between atoms: _247  and  _248
REMARK   87  A    between atoms: _247  and  _250
REMARK   88  A    between atoms: _250  and  _251
REMARK   89  A    between atoms: _251  and  _252
REMARK   90  A    between atoms: _257  and  _259
REMARK   91  A    between atoms: _259  and  _260
REMARK   92  A    between atoms: _259  and  _262
REMARK   93  A    between atoms: _262  and  _263
REMARK   94  A    between atoms: _266  and  _268
REMARK   95  A    between atoms: _268  and  _269
REMARK   96  A    between atoms: _272  and  _274
REMARK   97  A    between atoms: _274  and  _275
REMARK   98  A    between atoms: _274  and  _277
REMARK   99  A    between atoms: _280  and  _282
REMARK  100  A    between atoms: _282  and  _283
REMARK  101  A    between atoms: _282  and  _285
REMARK  102  A    between atoms: _285  and  _286
REMARK  103  A    between atoms: _289  and  _291
REMARK  104  A    between atoms: _291  and  _292
REMARK  105  A    between atoms: _294  and  _296
REMARK  106  A    between atoms: _296  and  _297
REMARK  107  A    between atoms: _296  and  _299
REMARK  108  A    between atoms: _299  and  _300
REMARK  109  A    between atoms: _302  and  _304
REMARK  110  A    between atoms: _304  and  _305
REMARK  111  A    between atoms: _304  and  _307
REMARK  112  A    between atoms: _307  and  _308
REMARK  113  A    between atoms: _311  and  _313
REMARK  114  A    between atoms: _313  and  _314
REMARK  115  A    between atoms: _313  and  _316
REMARK  116  A    between atoms: _316  and  _317
REMARK  117  A    between atoms: _320  and  _322
REMARK  118  A    between atoms: _322  and  _323
REMARK  119  A    between atoms: _322  and  _325
REMARK  120  A    between atoms: _325  and  _326
REMARK  121  A    between atoms: _330  and  _331
REMARK  122  A    between atoms: _337  and  _338
REMARK  123  A    between atoms: _343  and  _345
REMARK  124  A    between atoms: _345  and  _346
REMARK  125  A    between atoms: _345  and  _348
REMARK  126  A    between atoms: _348  and  _349
REMARK  127  A    between atoms: _352  and  _354
REMARK  128  A    between atoms: _354  and  _355
REMARK  129  A    between atoms: _354  and  _357
REMARK  130  A    between atoms: _357  and  _358
REMARK  131  A    between atoms: _361  and  _363
REMARK  132  A    between atoms: _363  and  _364
REMARK  133  A    between atoms: _363  and  _366
REMARK  134  A    between atoms: _368  and  _370
REMARK  135  A    between atoms: _370  and  _371
REMARK  136  A    between atoms: _370  and  _373
REMARK  137  A    between atoms: _376  and  _378
REMARK  138  A    between atoms: _378  and  _379
REMARK  139  A    between atoms: _378  and  _381
REMARK  140  A    between atoms: _381  and  _382
REMARK  141  A    between atoms: _392  and  _394
REMARK  142  A    between atoms: _394  and  _395
REMARK  143  A    between atoms: _394  and  _397
REMARK  144  A    between atoms: _397  and  _398
REMARK  145  A    between atoms: _403  and  _405
REMARK  146  A    between atoms: _405  and  _406
REMARK  147  A    between atoms: _405  and  _408
REMARK  148  A    between atoms: _408  and  _409
REMARK  149  A    between atoms: _409  and  _410
REMARK  150  A    between atoms: _410  and  _411
REMARK                            x       y       z     vdW  Elec       q    Type
REMARK                         _______ _______ _______ _____ _____    ______ ____
ROOT
ATOM      1  CB  ASN A   1      -2.575   2.228   5.382  0.00  0.00    +0.110 C 
ENDROOT
BRANCH   1   2
ATOM      2  CG  ASN A   1      -2.959   1.381   6.553  0.00  0.00    +0.221 C 
ATOM      3  ND2 ASN A   1      -3.726   1.933   7.488  0.00  0.00    -0.329 N 
ATOM      4 HD21 ASN A   1      -4.015   1.377   8.318  0.00  0.00    +0.145 HD
ATOM      5 HD22 ASN A   1      -4.037   2.921   7.389  0.00  0.00    +0.145 HD
ATOM      6  OD1 ASN A   1      -2.563   0.218   6.619  0.00  0.00    -0.275 OA
ENDBRANCH   1   2
BRANCH   1   7
ATOM      7  CA  ASN A   1      -2.222   1.391   4.138  0.00  0.00    +0.142 C 
BRANCH   7   8
ATOM      8  N   ASN A   1      -3.373   0.580   3.702  0.00  0.00    -0.239 NA
ATOM      9  H   ASN A   1      -3.939   0.066   4.407  0.00  0.00    +0.142 HD
ENDBRANCH   7   8
BRANCH   7  10
ATOM     10  C   ASN A   1      -0.955   0.603   4.389  0.00  0.00    +0.225 C 
ATOM     11  O   ASN A   1       0.022   1.156   4.908  0.00  0.00    -0.287 OA
ENDBRANCH   7  10
ENDBRANCH   1   7
TORSDOF 4
REMARK  Name = ../refined-set-2016/3mzc/3mzc_pocket.pdb
REMARK  150 active torsions:
REMARK  status: ('A' for Active; 'I' for Inactive)
REMARK    1  A    between atoms: _1  and  _3
REMARK    2  A    between atoms: _3  and  _4
REMARK    3  A    between atoms: _3  and  _6
REMARK    4  A    between atoms: _6  and  _7
REMARK    5  A    between atoms: _17  and  _19
REMARK    6  A    between atoms: _19  and  _20
REMARK    7  A    between atoms: _19  and  _22
REMARK    8  A    between atoms: _22  and  _23
REMARK    9  A    between atoms: _28  and  _29
REMARK   10  A    between atoms: _31  and  _33
REMARK   11  A    between atoms: _33  and  _34
REMARK   12  A    between atoms: _33  and  _36
REMARK   13  A    between atoms: _36  and  _37
REMARK   14  A    between atoms: _40  and  _41
REMARK   15  A    between atoms: _46  and  _48
REMARK   16  A    between atoms: _48  and  _49
REMARK   17  A    between atoms: _48  and  _51
REMARK   18  A    between atoms: _51  and  _52
REMARK   19  A    between atoms: _57  and  _59
REMARK   20  A    between atoms: _59  and  _60
REMARK   21  A    between atoms: _63  and  _65
REMARK   22  A    between atoms: _65  and  _66
REMARK   23  A    between atoms: _65  and  _68
REMARK   24  A    between atoms: _68  and  _69
REMARK   25  A    between atoms: _74  and  _76
REMARK   26  A    between atoms: _76  and  _77
REMARK   27  A    between atoms: _76  and  _79
REMARK   28  A    between atoms: _79  and  _80
REMARK   29  A    between atoms: _83  and  _85
REMARK   30  A    between atoms: _85  and  _86
REMARK   31  A    between atoms: _85  and  _88
REMARK   32  A    between atoms: _88  and  _89
REMARK   33  A    between atoms: _89  and  _90
REMARK   34  A    between atoms: _95  and  _97
REMARK   35  A    between atoms: _97  and  _98
REMARK   36  A    between atoms: _97  and  _100
REMARK   37  A    between atoms: _100  and  _101
REMARK   38  A    between atoms: _107  and  _109
REMARK   39  A    between atoms: _120  and  _123
REMARK   40  A    between atoms: _123  and  _124
REMARK   41  A    between atoms: _132  and  _133
REMARK   42  A    between atoms: _141  and  _143
REMARK   43  A    between atoms: _143  and  _144
REMARK   44  A    between atoms: _143  and  _146
REMARK   45  A    between atoms: _146  and  _147
REMARK   46  A    between atoms: _147  and  _148
REMARK   47  A    between atoms: _151  and  _153
REMARK   48  A    between atoms: _153  and  _154
REMARK   49  A    between atoms: _153  and  _156
REMARK   50  A    between atoms: _156  and  _157
REMARK   51  A    between atoms: _162  and  _164
REMARK   52  A    between atoms: _164  and  _165
REMARK   53  A    between atoms: _164  and  _167
REMARK   54  A    between atoms: _167  and  _168
REMARK   55  A    between atoms: _168  and  _169
REMARK   56  A    between atoms: _172  and  _174
REMARK   57  A    between atoms: _174  and  _175
REMARK   58  A    between atoms: _174  and  _177
REMARK   59  A    between atoms: _177  and  _178
REMARK   60  A    between atoms: _181  and  _183
REMARK   61  A    between atoms: _183  and  _184
REMARK   62  A    between atoms: _183  and  _186
REMARK   63  A    between atoms: _186  and  _187
REMARK   64  A    between atoms: _188  and  ZN_420
REMARK   65  A    between atoms: _192  and  _194
REMARK   66  A    between atoms: _194  and  _195
REMARK   67  A    between atoms: _194  and  _197
REMARK   68  A    between atoms: _197  and  _198
REMARK   69  A    between atoms: _201  and  _203
REMARK   70  A    between atoms: _203  and  _204
REMARK   71  A    between atoms: _203  and  _206
REMARK   72  A    between atoms: _209  and  _211
REMARK   73  A    between atoms: _211  and  _212
REMARK   74  A    between atoms: _211  and  _214
REMARK   75  A    between atoms: _214  and  _215
REMARK   76  A    between atoms: _220  and  _222
REMARK   77  A    between atoms: _222  and  _223
REMARK   78  A    between atoms: _222  and  _225
REMARK   79  A    between atoms: _225  and  _226
REMARK   80  A    between atoms: _232  and  _234
REMARK   81  A    between atoms: _234  and  _235
REMARK   82  A    between atoms: _237  and  _239
REMARK   83  A    between atoms: _239  and  _240
REMARK   84  A    between atoms: _239  and  _242
REMARK   85  A    between atoms: _245  and  _247
REMARK   86  A    between atoms: _247  and  _248
REMARK   87  A    between atoms: _247  and  _250
REMARK   88  A    between atoms: _250  and  _251
REMARK   89  A    between atoms: _251  and  _252
REMARK   90  A    between atoms: _257  and  _259
REMARK   91  A    between atoms: _259  and  _260
REMARK   92  A    between atoms: _259  and  _262
REMARK   93  A    between atoms: _262  and  _263
REMARK   94  A    between atoms: _266  and  _268
REMARK   95  A    between atoms: _268  and  _269
REMARK   96  A    between atoms: _272  and  _274
REMARK   97  A    between atoms: _274  and  _275
REMARK   98  A    between atoms: _274  and  _277
REMARK   99  A    between atoms: _280  and  _282
REMARK  100  A    between atoms: _282  and  _283
REMARK  101  A    between atoms: _282  and  _285
REMARK  102  A    between atoms: _285  and  _286
REMARK  103  A    between atoms: _289  and  _291
REMARK  104  A    between atoms: _291  and  _292
REMARK  105  A    between atoms: _294  and  _296
REMARK  106  A    between atoms: _296  and  _297
REMARK  107  A    between atoms: _296  and  _299
REMARK  108  A    between atoms: _299  and  _300
REMARK  109  A    between atoms: _302  and  _304
REMARK  110  A    between atoms: _304  and  _305
REMARK  111  A    between atoms: _304  and  _307
REMARK  112  A    between atoms: _307  and  _308
REMARK  113  A    between atoms: _311  and  _313
REMARK  114  A    between atoms: _313  and  _314
REMARK  115  A    between atoms: _313  and  _316
REMARK  116  A    between atoms: _316  and  _317
REMARK  117  A    between atoms: _320  and  _322
REMARK  118  A    between atoms: _322  and  _323
REMARK  119  A    between atoms: _322  and  _325
REMARK  120  A    between atoms: _325  and  _326
REMARK  121  A    between atoms: _330  and  _331
REMARK  122  A    between atoms: _337  and  _338
REMARK  123  A    between atoms: _343  and  _345
REMARK  124  A    between atoms: _345  and  _346
REMARK  125  A    between atoms: _345  and  _348
REMARK  126  A    between atoms: _348  and  _349
REMARK  127  A    between atoms: _352  and  _354
REMARK  128  A    between atoms: _354  and  _355
REMARK  129  A    between atoms: _354  and  _357
REMARK  130  A    between atoms: _357  and  _358
REMARK  131  A    between atoms: _361  and  _363
REMARK  132  A    between atoms: _363  and  _364
REMARK  133  A    between atoms: _363  and  _366
REMARK  134  A    between atoms: _368  and  _370
REMARK  135  A    between atoms: _370  and  _371
REMARK  136  A    between atoms: _370  and  _373
REMARK  137  A    between atoms: _376  and  _378
REMARK  138  A    between atoms: _378  and  _379
REMARK  139  A    between atoms: _378  and  _381
REMARK  140  A    between atoms: _381  and  _382
REMARK  141  A    between atoms: _392  and  _394
REMARK  142  A    between atoms: _394  and  _395
REMARK  143  A    between atoms: _394  and  _397
REMARK  144  A    between atoms: _397  and  _398
REMARK  145  A    between atoms: _403  and  _405
REMARK  146  A    between atoms: _405  and  _406
REMARK  147  A    between atoms: _405  and  _408
REMARK  148  A    between atoms: _408  and  _409
REMARK  149  A    between atoms: _409  and  _410
REMARK  150  A    between atoms: _410  and  _411
REMARK                            x       y       z     vdW  Elec       q    Type
REMARK                         _______ _______ _______ _____ _____    ______ ____
ROOT
ATOM      1  CA  ALA A   1      -4.571  -3.077   7.390  0.00  0.00    +0.133 C 
ATOM      2  CB  ALA A   1      -5.214  -2.828   8.770  0.00  0.00    +0.027 C 
ENDROOT
BRANCH   1   3
ATOM      3  N   ALA A   1      -3.191  -2.605   7.363  0.00  0.00    -0.239 NA
ATOM      4  H   ALA A   1      -2.997  -1.720   6.853  0.00  0.00    +0.142 HD
ENDBRANCH   1   3
BRANCH   1   5
ATOM      5  C   ALA A   1      -5.297  -2.293   6.296  0.00  0.00    +0.224 C 
ATOM      6  O   ALA A   1      -4.654  -1.642   5.473  0.00  0.00    -0.287 OA
ENDBRANCH   1   5
TORSDOF 2
REMARK  Name = ../refined-set-2016/3mzc/3mzc_pocket.pdb
REMARK  150 active torsions:
REMARK  status: ('A' for Active; 'I' for Inactive)
REMARK    1  A    between atoms: _1  and  _3
REMARK    2  A    between atoms: _3  and  _4
REMARK    3  A    between atoms: _3  and  _6
REMARK    4  A    between atoms: _6  and  _7
REMARK    5  A    between atoms: _17  and  _19
REMARK    6  A    between atoms: _19  and  _20
REMARK    7  A    between atoms: _19  and  _22
REMARK    8  A    between atoms: _22  and  _23
REMARK    9  A    between atoms: _28  and  _29
REMARK   10  A    between atoms: _31  and  _33
REMARK   11  A    between atoms: _33  and  _34
REMARK   12  A    between atoms: _33  and  _36
REMARK   13  A    between atoms: _36  and  _37
REMARK   14  A    between atoms: _40  and  _41
REMARK   15  A    between atoms: _46  and  _48
REMARK   16  A    between atoms: _48  and  _49
REMARK   17  A    between atoms: _48  and  _51
REMARK   18  A    between atoms: _51  and  _52
REMARK   19  A    between atoms: _57  and  _59
REMARK   20  A    between atoms: _59  and  _60
REMARK   21  A    between atoms: _63  and  _65
REMARK   22  A    between atoms: _65  and  _66
REMARK   23  A    between atoms: _65  and  _68
REMARK   24  A    between atoms: _68  and  _69
REMARK   25  A    between atoms: _74  and  _76
REMARK   26  A    between atoms: _76  and  _77
REMARK   27  A    between atoms: _76  and  _79
REMARK   28  A    between atoms: _79  and  _80
REMARK   29  A    between atoms: _83  and  _85
REMARK   30  A    between atoms: _85  and  _86
REMARK   31  A    between atoms: _85  and  _88
REMARK   32  A    between atoms: _88  and  _89
REMARK   33  A    between atoms: _89  and  _90
REMARK   34  A    between atoms: _95  and  _97
REMARK   35  A    between atoms: _97  and  _98
REMARK   36  A    between atoms: _97  and  _100
REMARK   37  A    between atoms: _100  and  _101
REMARK   38  A    between atoms: _107  and  _109
REMARK   39  A    between atoms: _120  and  _123
REMARK   40  A    between atoms: _123  and  _124
REMARK   41  A    between atoms: _132  and  _133
REMARK   42  A    between atoms: _141  and  _143
REMARK   43  A    between atoms: _143  and  _144
REMARK   44  A    between atoms: _143  and  _146
REMARK   45  A    between atoms: _146  and  _147
REMARK   46  A    between atoms: _147  and  _148
REMARK   47  A    between atoms: _151  and  _153
REMARK   48  A    between atoms: _153  and  _154
REMARK   49  A    between atoms: _153  and  _156
REMARK   50  A    between atoms: _156  and  _157
REMARK   51  A    between atoms: _162  and  _164
REMARK   52  A    between atoms: _164  and  _165
REMARK   53  A    between atoms: _164  and  _167
REMARK   54  A    between atoms: _167  and  _168
REMARK   55  A    between atoms: _168  and  _169
REMARK   56  A    between atoms: _172  and  _174
REMARK   57  A    between atoms: _174  and  _175
REMARK   58  A    between atoms: _174  and  _177
REMARK   59  A    between atoms: _177  and  _178
REMARK   60  A    between atoms: _181  and  _183
REMARK   61  A    between atoms: _183  and  _184
REMARK   62  A    between atoms: _183  and  _186
REMARK   63  A    between atoms: _186  and  _187
REMARK   64  A    between atoms: _188  and  ZN_420
REMARK   65  A    between atoms: _192  and  _194
REMARK   66  A    between atoms: _194  and  _195
REMARK   67  A    between atoms: _194  and  _197
REMARK   68  A    between atoms: _197  and  _198
REMARK   69  A    between atoms: _201  and  _203
REMARK   70  A    between atoms: _203  and  _204
REMARK   71  A    between atoms: _203  and  _206
REMARK   72  A    between atoms: _209  and  _211
REMARK   73  A    between atoms: _211  and  _212
REMARK   74  A    between atoms: _211  and  _214
REMARK   75  A    between atoms: _214  and  _215
REMARK   76  A    between atoms: _220  and  _222
REMARK   77  A    between atoms: _222  and  _223
REMARK   78  A    between atoms: _222  and  _225
REMARK   79  A    between atoms: _225  and  _226
REMARK   80  A    between atoms: _232  and  _234
REMARK   81  A    between atoms: _234  and  _235
REMARK   82  A    between atoms: _237  and  _239
REMARK   83  A    between atoms: _239  and  _240
REMARK   84  A    between atoms: _239  and  _242
REMARK   85  A    between atoms: _245  and  _247
REMARK   86  A    between atoms: _247  and  _248
REMARK   87  A    between atoms: _247  and  _250
REMARK   88  A    between atoms: _250  and  _251
REMARK   89  A    between atoms: _251  and  _252
REMARK   90  A    between atoms: _257  and  _259
REMARK   91  A    between atoms: _259  and  _260
REMARK   92  A    between atoms: _259  and  _262
REMARK   93  A    between atoms: _262  and  _263
REMARK   94  A    between atoms: _266  and  _268
REMARK   95  A    between atoms: _268  and  _269
REMARK   96  A    between atoms: _272  and  _274
REMARK   97  A    between atoms: _274  and  _275
REMARK   98  A    between atoms: _274  and  _277
REMARK   99  A    between atoms: _280  and  _282
REMARK  100  A    between atoms: _282  and  _283
REMARK  101  A    between atoms: _282  and  _285
REMARK  102  A    between atoms: _285  and  _286
REMARK  103  A    between atoms: _289  and  _291
REMARK  104  A    between atoms: _291  and  _292
REMARK  105  A    between atoms: _294  and  _296
REMARK  106  A    between atoms: _296  and  _297
REMARK  107  A    between atoms: _296  and  _299
REMARK  108  A    between atoms: _299  and  _300
REMARK  109  A    between atoms: _302  and  _304
REMARK  110  A    between atoms: _304  and  _305
REMARK  111  A    between atoms: _304  and  _307
REMARK  112  A    between atoms: _307  and  _308
REMARK  113  A    between atoms: _311  and  _313
REMARK  114  A    between atoms: _313  and  _314
REMARK  115  A    between atoms: _313  and  _316
REMARK  116  A    between atoms: _316  and  _317
REMARK  117  A    between atoms: _320  and  _322
REMARK  118  A    between atoms: _322  and  _323
REMARK  119  A    between atoms: _322  and  _325
REMARK  120  A    between atoms: _325  and  _326
REMARK  121  A    between atoms: _330  and  _331
REMARK  122  A    between atoms: _337  and  _338
REMARK  123  A    between atoms: _343  and  _345
REMARK  124  A    between atoms: _345  and  _346
REMARK  125  A    between atoms: _345  and  _348
REMARK  126  A    between atoms: _348  and  _349
REMARK  127  A    between atoms: _352  and  _354
REMARK  128  A    between atoms: _354  and  _355
REMARK  129  A    between atoms: _354  and  _357
REMARK  130  A    between atoms: _357  and  _358
REMARK  131  A    between atoms: _361  and  _363
REMARK  132  A    between atoms: _363  and  _364
REMARK  133  A    between atoms: _363  and  _366
REMARK  134  A    between atoms: _368  and  _370
REMARK  135  A    between atoms: _370  and  _371
REMARK  136  A    between atoms: _370  and  _373
REMARK  137  A    between atoms: _376  and  _378
REMARK  138  A    between atoms: _378  and  _379
REMARK  139  A    between atoms: _378  and  _381
REMARK  140  A    between atoms: _381  and  _382
REMARK  141  A    between atoms: _392  and  _394
REMARK  142  A    between atoms: _394  and  _395
REMARK  143  A    between atoms: _394  and  _397
REMARK  144  A    between atoms: _397  and  _398
REMARK  145  A    between atoms: _403  and  _405
REMARK  146  A    between atoms: _405  and  _406
REMARK  147  A    between atoms: _405  and  _408
REMARK  148  A    between atoms: _408  and  _409
REMARK  149  A    between atoms: _409  and  _410
REMARK  150  A    between atoms: _410  and  _411
REMARK                            x       y       z     vdW  Elec       q    Type
REMARK                         _______ _______ _______ _____ _____    ______ ____
ROOT
ATOM      1  CB  ASN A   1      -8.575   2.784   7.116  0.00  0.00    +0.110 C 
ENDROOT
BRANCH   1   2
ATOM      2  CG  ASN A   1      -7.512   2.515   8.141  0.00  0.00    +0.221 C 
ATOM      3  OD1 ASN A   1      -7.395   1.416   8.653  0.00  0.00    -0.275 OA
ATOM      4  ND2 ASN A   1      -6.702   3.530   8.429  0.00  0.00    -0.329 N 
ATOM      5 HD21 ASN A   1      -5.932   3.402   9.116  0.00  0.00    +0.145 HD
ATOM      6 HD22 ASN A   1      -6.839   4.452   7.967  0.00  0.00    +0.145 HD
ENDBRANCH   1   2
BRANCH   1   7
ATOM      7  CA  ASN A   1      -9.310   1.528   6.667  0.00  0.00    +0.142 C 
BRANCH   7   8
ATOM      8  N   ASN A   1      -8.447   0.629   5.911  0.00  0.00    -0.239 NA
ATOM      9  H   ASN A   1      -7.907   0.998   5.102  0.00  0.00    +0.142 HD
ENDBRANCH   7   8
BRANCH   7  10
ATOM     10  C   ASN A   1     -10.477   1.992   5.816  0.00  0.00    +0.225 C 
ATOM     11  O   ASN A   1     -10.287   2.439   4.678  0.00  0.00    -0.287 OA
ENDBRANCH   7  10
ENDBRANCH   1   7
TORSDOF 4
REMARK  Name = ../refined-set-2016/3mzc/3mzc_pocket.pdb
REMARK  150 active torsions:
REMARK  status: ('A' for Active; 'I' for Inactive)
REMARK    1  A    between atoms: _1  and  _3
REMARK    2  A    between atoms: _3  and  _4
REMARK    3  A    between atoms: _3  and  _6
REMARK    4  A    between atoms: _6  and  _7
REMARK    5  A    between atoms: _17  and  _19
REMARK    6  A    between atoms: _19  and  _20
REMARK    7  A    between atoms: _19  and  _22
REMARK    8  A    between atoms: _22  and  _23
REMARK    9  A    between atoms: _28  and  _29
REMARK   10  A    between atoms: _31  and  _33
REMARK   11  A    between atoms: _33  and  _34
REMARK   12  A    between atoms: _33  and  _36
REMARK   13  A    between atoms: _36  and  _37
REMARK   14  A    between atoms: _40  and  _41
REMARK   15  A    between atoms: _46  and  _48
REMARK   16  A    between atoms: _48  and  _49
REMARK   17  A    between atoms: _48  and  _51
REMARK   18  A    between atoms: _51  and  _52
REMARK   19  A    between atoms: _57  and  _59
REMARK   20  A    between atoms: _59  and  _60
REMARK   21  A    between atoms: _63  and  _65
REMARK   22  A    between atoms: _65  and  _66
REMARK   23  A    between atoms: _65  and  _68
REMARK   24  A    between atoms: _68  and  _69
REMARK   25  A    between atoms: _74  and  _76
REMARK   26  A    between atoms: _76  and  _77
REMARK   27  A    between atoms: _76  and  _79
REMARK   28  A    between atoms: _79  and  _80
REMARK   29  A    between atoms: _83  and  _85
REMARK   30  A    between atoms: _85  and  _86
REMARK   31  A    between atoms: _85  and  _88
REMARK   32  A    between atoms: _88  and  _89
REMARK   33  A    between atoms: _89  and  _90
REMARK   34  A    between atoms: _95  and  _97
REMARK   35  A    between atoms: _97  and  _98
REMARK   36  A    between atoms: _97  and  _100
REMARK   37  A    between atoms: _100  and  _101
REMARK   38  A    between atoms: _107  and  _109
REMARK   39  A    between atoms: _120  and  _123
REMARK   40  A    between atoms: _123  and  _124
REMARK   41  A    between atoms: _132  and  _133
REMARK   42  A    between atoms: _141  and  _143
REMARK   43  A    between atoms: _143  and  _144
REMARK   44  A    between atoms: _143  and  _146
REMARK   45  A    between atoms: _146  and  _147
REMARK   46  A    between atoms: _147  and  _148
REMARK   47  A    between atoms: _151  and  _153
REMARK   48  A    between atoms: _153  and  _154
REMARK   49  A    between atoms: _153  and  _156
REMARK   50  A    between atoms: _156  and  _157
REMARK   51  A    between atoms: _162  and  _164
REMARK   52  A    between atoms: _164  and  _165
REMARK   53  A    between atoms: _164  and  _167
REMARK   54  A    between atoms: _167  and  _168
REMARK   55  A    between atoms: _168  and  _169
REMARK   56  A    between atoms: _172  and  _174
REMARK   57  A    between atoms: _174  and  _175
REMARK   58  A    between atoms: _174  and  _177
REMARK   59  A    between atoms: _177  and  _178
REMARK   60  A    between atoms: _181  and  _183
REMARK   61  A    between atoms: _183  and  _184
REMARK   62  A    between atoms: _183  and  _186
REMARK   63  A    between atoms: _186  and  _187
REMARK   64  A    between atoms: _188  and  ZN_420
REMARK   65  A    between atoms: _192  and  _194
REMARK   66  A    between atoms: _194  and  _195
REMARK   67  A    between atoms: _194  and  _197
REMARK   68  A    between atoms: _197  and  _198
REMARK   69  A    between atoms: _201  and  _203
REMARK   70  A    between atoms: _203  and  _204
REMARK   71  A    between atoms: _203  and  _206
REMARK   72  A    between atoms: _209  and  _211
REMARK   73  A    between atoms: _211  and  _212
REMARK   74  A    between atoms: _211  and  _214
REMARK   75  A    between atoms: _214  and  _215
REMARK   76  A    between atoms: _220  and  _222
REMARK   77  A    between atoms: _222  and  _223
REMARK   78  A    between atoms: _222  and  _225
REMARK   79  A    between atoms: _225  and  _226
REMARK   80  A    between atoms: _232  and  _234
REMARK   81  A    between atoms: _234  and  _235
REMARK   82  A    between atoms: _237  and  _239
REMARK   83  A    between atoms: _239  and  _240
REMARK   84  A    between atoms: _239  and  _242
REMARK   85  A    between atoms: _245  and  _247
REMARK   86  A    between atoms: _247  and  _248
REMARK   87  A    between atoms: _247  and  _250
REMARK   88  A    between atoms: _250  and  _251
REMARK   89  A    between atoms: _251  and  _252
REMARK   90  A    between atoms: _257  and  _259
REMARK   91  A    between atoms: _259  and  _260
REMARK   92  A    between atoms: _259  and  _262
REMARK   93  A    between atoms: _262  and  _263
REMARK   94  A    between atoms: _266  and  _268
REMARK   95  A    between atoms: _268  and  _269
REMARK   96  A    between atoms: _272  and  _274
REMARK   97  A    between atoms: _274  and  _275
REMARK   98  A    between atoms: _274  and  _277
REMARK   99  A    between atoms: _280  and  _282
REMARK  100  A    between atoms: _282  and  _283
REMARK  101  A    between atoms: _282  and  _285
REMARK  102  A    between atoms: _285  and  _286
REMARK  103  A    between atoms: _289  and  _291
REMARK  104  A    between atoms: _291  and  _292
REMARK  105  A    between atoms: _294  and  _296
REMARK  106  A    between atoms: _296  and  _297
REMARK  107  A    between atoms: _296  and  _299
REMARK  108  A    between atoms: _299  and  _300
REMARK  109  A    between atoms: _302  and  _304
REMARK  110  A    between atoms: _304  and  _305
REMARK  111  A    between atoms: _304  and  _307
REMARK  112  A    between atoms: _307  and  _308
REMARK  113  A    between atoms: _311  and  _313
REMARK  114  A    between atoms: _313  and  _314
REMARK  115  A    between atoms: _313  and  _316
REMARK  116  A    between atoms: _316  and  _317
REMARK  117  A    between atoms: _320  and  _322
REMARK  118  A    between atoms: _322  and  _323
REMARK  119  A    between atoms: _322  and  _325
REMARK  120  A    between atoms: _325  and  _326
REMARK  121  A    between atoms: _330  and  _331
REMARK  122  A    between atoms: _337  and  _338
REMARK  123  A    between atoms: _343  and  _345
REMARK  124  A    between atoms: _345  and  _346
REMARK  125  A    between atoms: _345  and  _348
REMARK  126  A    between atoms: _348  and  _349
REMARK  127  A    between atoms: _352  and  _354
REMARK  128  A    between atoms: _354  and  _355
REMARK  129  A    between atoms: _354  and  _357
REMARK  130  A    between atoms: _357  and  _358
REMARK  131  A    between atoms: _361  and  _363
REMARK  132  A    between atoms: _363  and  _364
REMARK  133  A    between atoms: _363  and  _366
REMARK  134  A    between atoms: _368  and  _370
REMARK  135  A    between atoms: _370  and  _371
REMARK  136  A    between atoms: _370  and  _373
REMARK  137  A    between atoms: _376  and  _378
REMARK  138  A    between atoms: _378  and  _379
REMARK  139  A    between atoms: _378  and  _381
REMARK  140  A    between atoms: _381  and  _382
REMARK  141  A    between atoms: _392  and  _394
REMARK  142  A    between atoms: _394  and  _395
REMARK  143  A    between atoms: _394  and  _397
REMARK  144  A    between atoms: _397  and  _398
REMARK  145  A    between atoms: _403  and  _405
REMARK  146  A    between atoms: _405  and  _406
REMARK  147  A    between atoms: _405  and  _408
REMARK  148  A    between atoms: _408  and  _409
REMARK  149  A    between atoms: _409  and  _410
REMARK  150  A    between atoms: _410  and  _411
REMARK                            x       y       z     vdW  Elec       q    Type
REMARK                         _______ _______ _______ _____ _____    ______ ____
ROOT
ATOM      1  C   UNK A   4     -10.373  -1.357  10.281  0.00  0.00    +0.000 C 
ATOM      2  C   UNK A   4     -10.419  -2.631  11.090  0.00  0.00    +0.000 C 
ATOM      3  O   UNK A   4     -11.044  -2.694  12.136  0.00  0.00    +0.000 OA
ATOM      4  N   VAL A   5      -9.701  -3.640  10.615  0.00  0.00    +0.000 N 
ATOM      5  CA  VAL A   5      -9.639  -4.916  11.300  0.00  0.00    +0.000 C 
ATOM      6  C   VAL A   5      -8.191  -5.371  11.465  0.00  0.00    +0.000 C 
ATOM      7  N   UNK A   6      -8.035  -6.307  12.388  0.00  0.00    +0.000 N 
ATOM      8  H   UNK A   6      -8.804  -6.463  13.070  0.00  0.00    +0.000 HD
ATOM      9  C   UNK A   6      -6.831  -7.132  12.494  0.00  0.00    +0.000 C 
ATOM     10  C   UNK A   6      -6.140  -6.903  13.845  0.00  0.00    +0.000 C 
ATOM     11  C   UNK A   6      -5.872  -5.463  14.125  0.00  0.00    +0.000 A 
ATOM     12  C   UNK A   6      -6.703  -4.490  14.547  0.00  0.00    +0.000 A 
ATOM     13  N   UNK A   6      -5.965  -3.326  14.610  0.00  0.00    +0.000 N 
ATOM     14 ZN   UNK A   6      -6.716  -1.556  15.270  0.00  0.00    +0.000 Zn
ATOM     15  N   UNK A   4      -7.504  -0.687  13.613  0.00  0.00    +0.000 N 
ATOM     16  C   UNK A   4      -7.999   0.535  13.463  0.00  0.00    +0.000 A 
ATOM     17  N   UNK A   4      -8.539   0.613  12.261  0.00  0.00    +0.000 NA
ATOM     18  C   UNK A   4      -8.375  -0.588  11.602  0.00  0.00    +0.000 A 
ATOM     19  C   UNK A   4      -7.728  -1.403  12.465  0.00  0.00    +0.000 A 
ATOM     20  C   UNK A   6      -4.731  -3.583  14.218  0.00  0.00    +0.000 A 
ATOM     21  N   UNK A   6      -4.645  -4.868  13.910  0.00  0.00    +0.000 NA
ATOM     22  O   VAL A   5      -7.264  -4.918  10.773  0.00  0.00    +0.000 OA
ATOM     23  H   VAL A   5      -9.170  -3.513   9.730  0.00  0.00    +0.000 HD
ATOM     24  C   UNK A   4      -8.938  -0.846  10.240  0.00  0.00    +0.000 C 
ENDROOT
BRANCH  14  25
ATOM     25  N   UNK A   6      -8.195  -2.293  16.473  0.00  0.00    +0.000 N 
ATOM     26  C   UNK A   6      -7.874  -3.210  17.366  0.00  0.00    +0.000 A 
ATOM     27  N   UNK A   6      -8.969  -3.598  17.992  0.00  0.00    +0.000 NA
ATOM     28  C   UNK A   6     -10.037  -2.913  17.481  0.00  0.00    +0.000 A 
ATOM     29  C   UNK A   6      -9.556  -2.072  16.532  0.00  0.00    +0.000 A 
BRANCH  29  30
ATOM     30  C   UNK A   6     -10.267  -1.109  15.646  0.00  0.00    +0.000 C 
BRANCH  30  31
ATOM     31  C   UNK A   6     -11.765  -1.378  15.570  0.00  0.00    +0.000 C 
BRANCH  31  32
ATOM     32  C   UNK A   6     -12.431  -0.204  14.895  0.00  0.00    +0.000 C 
ATOM     33  N   UNK A   4     -13.424   0.359  15.585  0.00  0.00    +0.000 N 
ATOM     34  H   UNK A   4     -13.748  -0.102  16.459  0.00  0.00    +0.000 HD
ATOM     35  O   UNK A   6     -12.079   0.154  13.769  0.00  0.00    +0.000 OA
BRANCH  33  36
ATOM     36  C   UNK A   4     -14.080   1.606  15.159  0.00  0.00    +0.000 C 
BRANCH  36  37
ATOM     37  C   UNK A   4     -13.455   2.745  15.948  0.00  0.00    +0.000 C 
ATOM     38  O   UNK A   4     -13.588   2.822  17.158  0.00  0.00    +0.000 OA
ATOM     39  N   VAL A   5     -12.709   3.569  15.236  0.00  0.00    +0.000 N 
ATOM     40  H   VAL A   5     -12.727   3.494  14.199  0.00  0.00    +0.000 HD
BRANCH  39  41
ATOM     41  CA  VAL A   5     -11.856   4.586  15.859  0.00  0.00    +0.000 C 
BRANCH  41  42
ATOM     42  C   VAL A   5     -12.559   5.936  15.905  0.00  0.00    +0.000 C 
ATOM     43  N   UNK A   6     -12.640   6.524  17.099  0.00  0.00    +0.000 N 
ATOM     44  H   UNK A   6     -12.202   6.058  17.920  0.00  0.00    +0.000 HD
ATOM     45  O   VAL A   5     -13.010   6.432  14.868  0.00  0.00    +0.000 OA
BRANCH  43  46
ATOM     46  C   UNK A   6     -13.332   7.817  17.295  0.00  0.00    +0.000 C 
BRANCH  46  47
ATOM     47  C   UNK A   6     -12.438   8.790  18.047  0.00  0.00    +0.000 C 
ATOM     48  O   UNK A   6     -11.624   8.396  18.866  0.00  0.00    +0.000 OA
ENDBRANCH  46  47
BRANCH  46  49
ATOM     49  C   UNK A   6     -14.614   7.659  18.151  0.00  0.00    +0.000 C 
BRANCH  49  50
ATOM     50  C   UNK A   6     -15.529   6.542  17.738  0.00  0.00    +0.000 A 
ATOM     51  N   UNK A   6     -15.216   5.214  17.938  0.00  0.00    +0.000 NA
ATOM     52  C   UNK A   6     -16.217   4.462  17.512  0.00  0.00    +0.000 A 
ATOM     53  N   UNK A   6     -17.162   5.250  17.031  0.00  0.00    +0.000 NA
ATOM     54  C   UNK A   6     -16.754   6.559  17.162  0.00  0.00    +0.000 A 
ENDBRANCH  49  50
ENDBRANCH  46  49
ENDBRANCH  43  46
ENDBRANCH  41  42
BRANCH  41  55
ATOM     55  CB  VAL A   5     -10.553   4.731  15.083  0.00  0.00    +0.000 C 
ATOM     56  CG2 VAL A   5      -9.663   5.746  15.738  0.00  0.00    +0.000 C 
ATOM     57  CG1 VAL A   5      -9.809   3.358  14.933  0.00  0.00    +0.000 C 
ENDBRANCH  41  55
ENDBRANCH  39  41
ENDBRANCH  36  37
BRANCH  36  58
ATOM     58  C   UNK A   4     -15.577   1.509  15.373  0.00  0.00    +0.000 C 
BRANCH  58  59
ATOM     59  C   UNK A   4     -16.262   0.444  14.491  0.00  0.00    +0.000 C 
ATOM     60  C   UNK A   4     -17.018  -0.546  15.354  0.00  0.00    +0.000 C 
ATOM     61  C   UNK A   4     -17.199   1.094  13.469  0.00  0.00    +0.000 C 
ENDBRANCH  58  59
ENDBRANCH  36  58
ENDBRANCH  33  36
ENDBRANCH  31  32
BRANCH  31  62
ATOM     62  N   UNK A   6     -11.985  -2.624  14.834  0.00  0.00    +0.000 N 
ATOM     63  C   LEU A   2     -12.626  -3.677  15.326  0.00  0.00    +0.000 C 
ATOM     64  O   LEU A   2     -13.017  -3.765  16.473  0.00  0.00    +0.000 OA
ATOM     65  H   UNK A   6     -11.616  -2.688  13.864  0.00  0.00    +0.000 HD
BRANCH  63  66
ATOM     66  CA  LEU A   2     -12.843  -4.799  14.345  0.00  0.00    +0.000 C 
BRANCH  66  67
ATOM     67  N   LEU A   2     -12.430  -6.062  14.978  0.00  0.00    +0.000 N 
ATOM     68  H   LEU A   2     -13.126  -6.555  15.573  0.00  0.00    +0.000 HD
ATOM     69  C   GLU A   1     -11.230  -6.616  14.842  0.00  0.00    +0.000 C 
ATOM     70  O   GLU A   1     -10.338  -6.157  14.116  0.00  0.00    +0.000 OA
BRANCH  69  71
ATOM     71  CA  GLU A   1     -11.013  -7.894  15.659  0.00  0.00    +0.000 C 
BRANCH  71  72
ATOM     72  N   GLU A   1     -10.529  -8.934  14.768  0.00  0.00    +0.000 NA
ATOM     73  H   GLU A   1      -9.910  -8.671  13.975  0.00  0.00    +0.000 HD
ENDBRANCH  71  72
BRANCH  71  74
ATOM     74  CB  GLU A   1     -10.036  -7.664  16.810  0.00  0.00    +0.000 C 
BRANCH  74  75
ATOM     75  CG  GLU A   1     -10.552  -6.704  17.876  0.00  0.00    +0.000 C 
BRANCH  75  76
ATOM     76  CD  GLU A   1      -9.637  -6.641  19.086  0.00  0.00    +0.000 C 
ATOM     77  OE2 GLU A   1      -9.588  -5.585  19.769  0.00  0.00    +0.000 OA
ATOM     78  OE1 GLU A   1      -8.949  -7.638  19.374  0.00  0.00    +0.000 OA
ENDBRANCH  75  76
ENDBRANCH  74  75
ENDBRANCH  71  74
ENDBRANCH  69  71
ENDBRANCH  66  67
BRANCH  66  79
ATOM     79  CB  LEU A   2     -14.326  -4.906  13.995  0.00  0.00    +0.000 C 
BRANCH  79  80
ATOM     80  CG  LEU A   2     -15.092  -3.639  13.632  0.00  0.00    +0.000 C 
ATOM     81  CD2 LEU A   2     -16.554  -4.020  13.384  0.00  0.00    +0.000 C 
ATOM     82  CD1 LEU A   2     -14.514  -2.965  12.430  0.00  0.00    +0.000 C 
ENDBRANCH  79  80
ENDBRANCH  66  79
ENDBRANCH  63  66
ENDBRANCH  31  62
ENDBRANCH  30  31
ENDBRANCH  29  30
ENDBRANCH  14  25
BRANCH   1  84
ATOM     83  C   UNK A   3     -11.776   0.630  10.256  0.00  0.00    +0.000 C 
ATOM     84  N   UNK A   4     -11.242  -0.398  10.911  0.00  0.00    +0.000 N 
ATOM     85  H   UNK A   4     -11.462  -0.513  11.921  0.00  0.00    +0.000 HD
ATOM     86  O   UNK A   3     -11.540   0.872   9.070  0.00  0.00    +0.000 OA
BRANCH  83  87
ATOM     87  C   UNK A   3     -12.693   1.495  11.086  0.00  0.00    +0.000 C 
BRANCH  87  90
ATOM     88  C   LEU A   2     -12.595   3.914  11.204  0.00  0.00    +0.000 C 
ATOM     89  O   LEU A   2     -12.602   3.931  12.437  0.00  0.00    +0.000 OA
ATOM     90  N   UNK A   3     -12.814   2.810  10.482  0.00  0.00    +0.000 N 
ATOM     91  H   UNK A   3     -13.073   2.894   9.478  0.00  0.00    +0.000 HD
BRANCH  88  92
ATOM     92  CA  LEU A   2     -12.335   5.190  10.425  0.00  0.00    +0.000 C 
BRANCH  92  94
ATOM     93  C   GLU A   1     -12.762   7.558  10.768  0.00  0.00    +0.000 C 
ATOM     94  N   LEU A   2     -12.605   6.338  11.285  0.00  0.00    +0.000 N 
ATOM     95  H   LEU A   2     -12.676   6.203  12.314  0.00  0.00    +0.000 HD
ATOM     96  O   GLU A   1     -12.726   7.761   9.561  0.00  0.00    +0.000 OA
BRANCH  93  97
ATOM     97  CA  GLU A   1     -13.049   8.713  11.729  0.00  0.00    +0.000 C 
BRANCH  97  98
ATOM     98  CB  GLU A   1     -11.731   9.376  12.238  0.00  0.00    +0.000 C 
ATOM     99  CG2 GLU A   1     -10.998   8.526  13.265  0.00  0.00    +0.000 C 
BRANCH  98 100
ATOM    100  CG1 GLU A   1     -10.802   9.702  11.068  0.00  0.00    +0.000 C 
ATOM    101  CD1 GLU A   1      -9.608  10.583  11.446  0.00  0.00    +0.000 C 
ENDBRANCH  98 100
ENDBRANCH  97  98
BRANCH  97 102
ATOM    102  N   GLU A   1     -13.936   8.322  12.826  0.00  0.00    +0.000 NA
ATOM    103  H   GLU A   1     -13.568   7.716  13.587  0.00  0.00    +0.000 HD
ENDBRANCH  97 102
ENDBRANCH  93  97
ENDBRANCH  92  94
BRANCH  92 104
ATOM    104  CB  LEU A   2     -10.881   5.205   9.913  0.00  0.00    +0.000 C 
BRANCH 104 105
ATOM    105  CG  LEU A   2      -9.808   5.325  10.981  0.00  0.00    +0.000 C 
BRANCH 105 106
ATOM    106  CD  LEU A   2      -9.082   4.043  11.261  0.00  0.00    +0.000 C 
ATOM    107  NE2 LEU A   2      -7.872   4.179  11.710  0.00  0.00    +0.000 N 
ATOM    108 HE21 LEU A   2      -7.322   3.340  11.984  0.00  0.00    +0.000 HD
ATOM    109 HE22 LEU A   2      -7.452   5.127  11.795  0.00  0.00    +0.000 HD
ATOM    110  OE1 LEU A   2      -9.627   2.954  11.139  0.00  0.00    +0.000 OA
ENDBRANCH 105 106
ENDBRANCH 104 105
ENDBRANCH  92 104
ENDBRANCH  88  92
ENDBRANCH  87  90
BRANCH  87 111
ATOM    111  C   UNK A   3     -14.058   0.809  11.322  0.00  0.00    +0.000 C 
BRANCH 111 112
ATOM    112  C   UNK A   3     -14.782   0.365  10.073  0.00  0.00    +0.000 A 
ATOM    113  C   UNK A   3     -15.894   1.084   9.616  0.00  0.00    +0.000 A 
ATOM    114  C   UNK A   3     -16.591   0.646   8.500  0.00  0.00    +0.000 A 
ATOM    115  C   UNK A   3     -16.211  -0.501   7.824  0.00  0.00    +0.000 A 
ATOM    116  C   UNK A   3     -15.124  -1.227   8.271  0.00  0.00    +0.000 A 
ATOM    117  C   UNK A   3     -14.424  -0.804   9.393  0.00  0.00    +0.000 A 
ENDBRANCH 111 112
ENDBRANCH  87 111
ENDBRANCH  83  87
ENDBRANCH   1  84
BRANCH   9 118
ATOM    118  C   UNK A   6      -7.267  -8.587  12.382  0.00  0.00    +0.000 C 
ATOM    119  O   UNK A   6      -8.319  -8.955  12.923  0.00  0.00    +0.000 OA
ENDBRANCH   9 118
BRANCH   5 120
ATOM    120  CB  VAL A   5     -10.365  -6.006  10.474  0.00  0.00    +0.000 C 
BRANCH 120 121
ATOM    121  CG  VAL A   5     -11.814  -5.707  10.128  0.00  0.00    +0.000 A 
ATOM    122  CD2 VAL A   5     -12.835  -6.358  10.787  0.00  0.00    +0.000 A 
ATOM    123  CE2 VAL A   5     -14.158  -6.130  10.460  0.00  0.00    +0.000 A 
ATOM    124  CZ  VAL A   5     -14.482  -5.264   9.437  0.00  0.00    +0.000 A 
ATOM    125  CE1 VAL A   5     -13.486  -4.625   8.751  0.00  0.00    +0.000 A 
ATOM    126  CD1 VAL A   5     -12.141  -4.858   9.095  0.00  0.00    +0.000 A 
ENDBRANCH 120 121
ENDBRANCH   5 120
TORSDOF 42
REMARK  Name = ../refined-set-2016/3mzc/3mzc_pocket.pdb
REMARK  150 active torsions:
REMARK  status: ('A' for Active; 'I' for Inactive)
REMARK    1  A    between atoms: _1  and  _3
REMARK    2  A    between atoms: _3  and  _4
REMARK    3  A    between atoms: _3  and  _6
REMARK    4  A    between atoms: _6  and  _7
REMARK    5  A    between atoms: _17  and  _19
REMARK    6  A    between atoms: _19  and  _20
REMARK    7  A    between atoms: _19  and  _22
REMARK    8  A    between atoms: _22  and  _23
REMARK    9  A    between atoms: _28  and  _29
REMARK   10  A    between atoms: _31  and  _33
REMARK   11  A    between atoms: _33  and  _34
REMARK   12  A    between atoms: _33  and  _36
REMARK   13  A    between atoms: _36  and  _37
REMARK   14  A    between atoms: _40  and  _41
REMARK   15  A    between atoms: _46  and  _48
REMARK   16  A    between atoms: _48  and  _49
REMARK   17  A    between atoms: _48  and  _51
REMARK   18  A    between atoms: _51  and  _52
REMARK   19  A    between atoms: _57  and  _59
REMARK   20  A    between atoms: _59  and  _60
REMARK   21  A    between atoms: _63  and  _65
REMARK   22  A    between atoms: _65  and  _66
REMARK   23  A    between atoms: _65  and  _68
REMARK   24  A    between atoms: _68  and  _69
REMARK   25  A    between atoms: _74  and  _76
REMARK   26  A    between atoms: _76  and  _77
REMARK   27  A    between atoms: _76  and  _79
REMARK   28  A    between atoms: _79  and  _80
REMARK   29  A    between atoms: _83  and  _85
REMARK   30  A    between atoms: _85  and  _86
REMARK   31  A    between atoms: _85  and  _88
REMARK   32  A    between atoms: _88  and  _89
REMARK   33  A    between atoms: _89  and  _90
REMARK   34  A    between atoms: _95  and  _97
REMARK   35  A    between atoms: _97  and  _98
REMARK   36  A    between atoms: _97  and  _100
REMARK   37  A    between atoms: _100  and  _101
REMARK   38  A    between atoms: _107  and  _109
REMARK   39  A    between atoms: _120  and  _123
REMARK   40  A    between atoms: _123  and  _124
REMARK   41  A    between atoms: _132  and  _133
REMARK   42  A    between atoms: _141  and  _143
REMARK   43  A    between atoms: _143  and  _144
REMARK   44  A    between atoms: _143  and  _146
REMARK   45  A    between atoms: _146  and  _147
REMARK   46  A    between atoms: _147  and  _148
REMARK   47  A    between atoms: _151  and  _153
REMARK   48  A    between atoms: _153  and  _154
REMARK   49  A    between atoms: _153  and  _156
REMARK   50  A    between atoms: _156  and  _157
REMARK   51  A    between atoms: _162  and  _164
REMARK   52  A    between atoms: _164  and  _165
REMARK   53  A    between atoms: _164  and  _167
REMARK   54  A    between atoms: _167  and  _168
REMARK   55  A    between atoms: _168  and  _169
REMARK   56  A    between atoms: _172  and  _174
REMARK   57  A    between atoms: _174  and  _175
REMARK   58  A    between atoms: _174  and  _177
REMARK   59  A    between atoms: _177  and  _178
REMARK   60  A    between atoms: _181  and  _183
REMARK   61  A    between atoms: _183  and  _184
REMARK   62  A    between atoms: _183  and  _186
REMARK   63  A    between atoms: _186  and  _187
REMARK   64  A    between atoms: _188  and  ZN_420
REMARK   65  A    between atoms: _192  and  _194
REMARK   66  A    between atoms: _194  and  _195
REMARK   67  A    between atoms: _194  and  _197
REMARK   68  A    between atoms: _197  and  _198
REMARK   69  A    between atoms: _201  and  _203
REMARK   70  A    between atoms: _203  and  _204
REMARK   71  A    between atoms: _203  and  _206
REMARK   72  A    between atoms: _209  and  _211
REMARK   73  A    between atoms: _211  and  _212
REMARK   74  A    between atoms: _211  and  _214
REMARK   75  A    between atoms: _214  and  _215
REMARK   76  A    between atoms: _220  and  _222
REMARK   77  A    between atoms: _222  and  _223
REMARK   78  A    between atoms: _222  and  _225
REMARK   79  A    between atoms: _225  and  _226
REMARK   80  A    between atoms: _232  and  _234
REMARK   81  A    between atoms: _234  and  _235
REMARK   82  A    between atoms: _237  and  _239
REMARK   83  A    between atoms: _239  and  _240
REMARK   84  A    between atoms: _239  and  _242
REMARK   85  A    between atoms: _245  and  _247
REMARK   86  A    between atoms: _247  and  _248
REMARK   87  A    between atoms: _247  and  _250
REMARK   88  A    between atoms: _250  and  _251
REMARK   89  A    between atoms: _251  and  _252
REMARK   90  A    between atoms: _257  and  _259
REMARK   91  A    between atoms: _259  and  _260
REMARK   92  A    between atoms: _259  and  _262
REMARK   93  A    between atoms: _262  and  _263
REMARK   94  A    between atoms: _266  and  _268
REMARK   95  A    between atoms: _268  and  _269
REMARK   96  A    between atoms: _272  and  _274
REMARK   97  A    between atoms: _274  and  _275
REMARK   98  A    between atoms: _274  and  _277
REMARK   99  A    between atoms: _280  and  _282
REMARK  100  A    between atoms: _282  and  _283
REMARK  101  A    between atoms: _282  and  _285
REMARK  102  A    between atoms: _285  and  _286
REMARK  103  A    between atoms: _289  and  _291
REMARK  104  A    between atoms: _291  and  _292
REMARK  105  A    between atoms: _294  and  _296
REMARK  106  A    between atoms: _296  and  _297
REMARK  107  A    between atoms: _296  and  _299
REMARK  108  A    between atoms: _299  and  _300
REMARK  109  A    between atoms: _302  and  _304
REMARK  110  A    between atoms: _304  and  _305
REMARK  111  A    between atoms: _304  and  _307
REMARK  112  A    between atoms: _307  and  _308
REMARK  113  A    between atoms: _311  and  _313
REMARK  114  A    between atoms: _313  and  _314
REMARK  115  A    between atoms: _313  and  _316
REMARK  116  A    between atoms: _316  and  _317
REMARK  117  A    between atoms: _320  and  _322
REMARK  118  A    between atoms: _322  and  _323
REMARK  119  A    between atoms: _322  and  _325
REMARK  120  A    between atoms: _325  and  _326
REMARK  121  A    between atoms: _330  and  _331
REMARK  122  A    between atoms: _337  and  _338
REMARK  123  A    between atoms: _343  and  _345
REMARK  124  A    between atoms: _345  and  _346
REMARK  125  A    between atoms: _345  and  _348
REMARK  126  A    between atoms: _348  and  _349
REMARK  127  A    between atoms: _352  and  _354
REMARK  128  A    between atoms: _354  and  _355
REMARK  129  A    between atoms: _354  and  _357
REMARK  130  A    between atoms: _357  and  _358
REMARK  131  A    between atoms: _361  and  _363
REMARK  132  A    between atoms: _363  and  _364
REMARK  133  A    between atoms: _363  and  _366
REMARK  134  A    between atoms: _368  and  _370
REMARK  135  A    between atoms: _370  and  _371
REMARK  136  A    between atoms: _370  and  _373
REMARK  137  A    between atoms: _376  and  _378
REMARK  138  A    between atoms: _378  and  _379
REMARK  139  A    between atoms: _378  and  _381
REMARK  140  A    between atoms: _381  and  _382
REMARK  141  A    between atoms: _392  and  _394
REMARK  142  A    between atoms: _394  and  _395
REMARK  143  A    between atoms: _394  and  _397
REMARK  144  A    between atoms: _397  and  _398
REMARK  145  A    between atoms: _403  and  _405
REMARK  146  A    between atoms: _405  and  _406
REMARK  147  A    between atoms: _405  and  _408
REMARK  148  A    between atoms: _408  and  _409
REMARK  149  A    between atoms: _409  and  _410
REMARK  150  A    between atoms: _410  and  _411
REMARK                            x       y       z     vdW  Elec       q    Type
REMARK                         _______ _______ _______ _____ _____    ______ ____
ROOT
ATOM      1  C   GLU A   1      -5.812  -8.434  20.985  0.00  0.00    +0.238 C 
ATOM      2  O   GLU A   1      -5.020  -8.993  21.738  0.00  0.00    -0.274 OA
ATOM      3  N   HIS A   2      -6.992  -7.993  21.409  0.00  0.00    -0.298 N 
ATOM      4  H   HIS A   2      -7.562  -7.373  20.799  0.00  0.00    +0.150 HD
ENDROOT
BRANCH   1   5
ATOM      5  CA  GLU A   1      -5.474  -8.267  19.502  0.00  0.00    +0.145 C 
BRANCH   5   6
ATOM      6  N   GLU A   1      -6.496  -8.933  18.696  0.00  0.00    -0.238 NA
ATOM      7  H   GLU A   1      -7.354  -8.403  18.443  0.00  0.00    +0.142 HD
ENDBRANCH   5   6
BRANCH   5   8
ATOM      8  CB  GLU A   1      -5.420  -6.805  19.096  0.00  0.00    +0.038 C 
BRANCH   8   9
ATOM      9  CG  GLU A   1      -5.079  -6.624  17.627  0.00  0.00    +0.116 C 
BRANCH   9  10
ATOM     10  CD  GLU A   1      -4.364  -5.339  17.341  0.00  0.00    +0.365 C 
ATOM     11  OE2 GLU A   1      -4.966  -4.266  17.507  0.00  0.00    -0.246 OA
ATOM     12  OE1 GLU A   1      -3.216  -5.396  16.889  0.00  0.00    -0.246 OA
ENDBRANCH   9  10
ENDBRANCH   8   9
ENDBRANCH   5   8
ENDBRANCH   1   5
BRANCH   3  13
ATOM     13  CA  HIS A   2      -7.491  -8.374  22.726  0.00  0.00    +0.143 C 
BRANCH  13  14
ATOM     14  C   HIS A   2      -7.770  -9.863  22.753  0.00  0.00    +0.227 C 
ATOM     15  O   HIS A   2      -8.088 -10.477  21.719  0.00  0.00    -0.286 OA
ENDBRANCH  13  14
BRANCH  13  16
ATOM     16  CB  HIS A   2      -8.724  -7.552  23.113  0.00  0.00    +0.075 C 
BRANCH  16  17
ATOM     17  CG  HIS A   2      -8.408  -6.105  23.286  0.00  0.00    +0.082 A 
ATOM     18  CD2 HIS A   2      -7.984  -5.403  24.366  0.00  0.00    +0.115 A 
ATOM     19  NE2 HIS A   2      -7.750  -4.122  23.937  0.00  0.00    -0.221 NA
ATOM     20  CE1 HIS A   2      -8.039  -4.031  22.654  0.00  0.00    +0.199 A 
ATOM     21  ND1 HIS A   2      -8.454  -5.216  22.238  0.00  0.00    -0.227 NA
ENDBRANCH  16  17
ENDBRANCH  13  16
ENDBRANCH   3  13
TORSDOF 9
REMARK  Name = ../refined-set-2016/3mzc/3mzc_pocket.pdb
REMARK  150 active torsions:
REMARK  status: ('A' for Active; 'I' for Inactive)
REMARK    1  A    between atoms: _1  and  _3
REMARK    2  A    between atoms: _3  and  _4
REMARK    3  A    between atoms: _3  and  _6
REMARK    4  A    between atoms: _6  and  _7
REMARK    5  A    between atoms: _17  and  _19
REMARK    6  A    between atoms: _19  and  _20
REMARK    7  A    between atoms: _19  and  _22
REMARK    8  A    between atoms: _22  and  _23
REMARK    9  A    between atoms: _28  and  _29
REMARK   10  A    between atoms: _31  and  _33
REMARK   11  A    between atoms: _33  and  _34
REMARK   12  A    between atoms: _33  and  _36
REMARK   13  A    between atoms: _36  and  _37
REMARK   14  A    between atoms: _40  and  _41
REMARK   15  A    between atoms: _46  and  _48
REMARK   16  A    between atoms: _48  and  _49
REMARK   17  A    between atoms: _48  and  _51
REMARK   18  A    between atoms: _51  and  _52
REMARK   19  A    between atoms: _57  and  _59
REMARK   20  A    between atoms: _59  and  _60
REMARK   21  A    between atoms: _63  and  _65
REMARK   22  A    between atoms: _65  and  _66
REMARK   23  A    between atoms: _65  and  _68
REMARK   24  A    between atoms: _68  and  _69
REMARK   25  A    between atoms: _74  and  _76
REMARK   26  A    between atoms: _76  and  _77
REMARK   27  A    between atoms: _76  and  _79
REMARK   28  A    between atoms: _79  and  _80
REMARK   29  A    between atoms: _83  and  _85
REMARK   30  A    between atoms: _85  and  _86
REMARK   31  A    between atoms: _85  and  _88
REMARK   32  A    between atoms: _88  and  _89
REMARK   33  A    between atoms: _89  and  _90
REMARK   34  A    between atoms: _95  and  _97
REMARK   35  A    between atoms: _97  and  _98
REMARK   36  A    between atoms: _97  and  _100
REMARK   37  A    between atoms: _100  and  _101
REMARK   38  A    between atoms: _107  and  _109
REMARK   39  A    between atoms: _120  and  _123
REMARK   40  A    between atoms: _123  and  _124
REMARK   41  A    between atoms: _132  and  _133
REMARK   42  A    between atoms: _141  and  _143
REMARK   43  A    between atoms: _143  and  _144
REMARK   44  A    between atoms: _143  and  _146
REMARK   45  A    between atoms: _146  and  _147
REMARK   46  A    between atoms: _147  and  _148
REMARK   47  A    between atoms: _151  and  _153
REMARK   48  A    between atoms: _153  and  _154
REMARK   49  A    between atoms: _153  and  _156
REMARK   50  A    between atoms: _156  and  _157
REMARK   51  A    between atoms: _162  and  _164
REMARK   52  A    between atoms: _164  and  _165
REMARK   53  A    between atoms: _164  and  _167
REMARK   54  A    between atoms: _167  and  _168
REMARK   55  A    between atoms: _168  and  _169
REMARK   56  A    between atoms: _172  and  _174
REMARK   57  A    between atoms: _174  and  _175
REMARK   58  A    between atoms: _174  and  _177
REMARK   59  A    between atoms: _177  and  _178
REMARK   60  A    between atoms: _181  and  _183
REMARK   61  A    between atoms: _183  and  _184
REMARK   62  A    between atoms: _183  and  _186
REMARK   63  A    between atoms: _186  and  _187
REMARK   64  A    between atoms: _188  and  ZN_420
REMARK   65  A    between atoms: _192  and  _194
REMARK   66  A    between atoms: _194  and  _195
REMARK   67  A    between atoms: _194  and  _197
REMARK   68  A    between atoms: _197  and  _198
REMARK   69  A    between atoms: _201  and  _203
REMARK   70  A    between atoms: _203  and  _204
REMARK   71  A    between atoms: _203  and  _206
REMARK   72  A    between atoms: _209  and  _211
REMARK   73  A    between atoms: _211  and  _212
REMARK   74  A    between atoms: _211  and  _214
REMARK   75  A    between atoms: _214  and  _215
REMARK   76  A    between atoms: _220  and  _222
REMARK   77  A    between atoms: _222  and  _223
REMARK   78  A    between atoms: _222  and  _225
REMARK   79  A    between atoms: _225  and  _226
REMARK   80  A    between atoms: _232  and  _234
REMARK   81  A    between atoms: _234  and  _235
REMARK   82  A    between atoms: _237  and  _239
REMARK   83  A    between atoms: _239  and  _240
REMARK   84  A    between atoms: _239  and  _242
REMARK   85  A    between atoms: _245  and  _247
REMARK   86  A    between atoms: _247  and  _248
REMARK   87  A    between atoms: _247  and  _250
REMARK   88  A    between atoms: _250  and  _251
REMARK   89  A    between atoms: _251  and  _252
REMARK   90  A    between atoms: _257  and  _259
REMARK   91  A    between atoms: _259  and  _260
REMARK   92  A    between atoms: _259  and  _262
REMARK   93  A    between atoms: _262  and  _263
REMARK   94  A    between atoms: _266  and  _268
REMARK   95  A    between atoms: _268  and  _269
REMARK   96  A    between atoms: _272  and  _274
REMARK   97  A    between atoms: _274  and  _275
REMARK   98  A    between atoms: _274  and  _277
REMARK   99  A    between atoms: _280  and  _282
REMARK  100  A    between atoms: _282  and  _283
REMARK  101  A    between atoms: _282  and  _285
REMARK  102  A    between atoms: _285  and  _286
REMARK  103  A    between atoms: _289  and  _291
REMARK  104  A    between atoms: _291  and  _292
REMARK  105  A    between atoms: _294  and  _296
REMARK  106  A    between atoms: _296  and  _297
REMARK  107  A    between atoms: _296  and  _299
REMARK  108  A    between atoms: _299  and  _300
REMARK  109  A    between atoms: _302  and  _304
REMARK  110  A    between atoms: _304  and  _305
REMARK  111  A    between atoms: _304  and  _307
REMARK  112  A    between atoms: _307  and  _308
REMARK  113  A    between atoms: _311  and  _313
REMARK  114  A    between atoms: _313  and  _314
REMARK  115  A    between atoms: _313  and  _316
REMARK  116  A    between atoms: _316  and  _317
REMARK  117  A    between atoms: _320  and  _322
REMARK  118  A    between atoms: _322  and  _323
REMARK  119  A    between atoms: _322  and  _325
REMARK  120  A    between atoms: _325  and  _326
REMARK  121  A    between atoms: _330  and  _331
REMARK  122  A    between atoms: _337  and  _338
REMARK  123  A    between atoms: _343  and  _345
REMARK  124  A    between atoms: _345  and  _346
REMARK  125  A    between atoms: _345  and  _348
REMARK  126  A    between atoms: _348  and  _349
REMARK  127  A    between atoms: _352  and  _354
REMARK  128  A    between atoms: _354  and  _355
REMARK  129  A    between atoms: _354  and  _357
REMARK  130  A    between atoms: _357  and  _358
REMARK  131  A    between atoms: _361  and  _363
REMARK  132  A    between atoms: _363  and  _364
REMARK  133  A    between atoms: _363  and  _366
REMARK  134  A    between atoms: _368  and  _370
REMARK  135  A    between atoms: _370  and  _371
REMARK  136  A    between atoms: _370  and  _373
REMARK  137  A    between atoms: _376  and  _378
REMARK  138  A    between atoms: _378  and  _379
REMARK  139  A    between atoms: _378  and  _381
REMARK  140  A    between atoms: _381  and  _382
REMARK  141  A    between atoms: _392  and  _394
REMARK  142  A    between atoms: _394  and  _395
REMARK  143  A    between atoms: _394  and  _397
REMARK  144  A    between atoms: _397  and  _398
REMARK  145  A    between atoms: _403  and  _405
REMARK  146  A    between atoms: _405  and  _406
REMARK  147  A    between atoms: _405  and  _408
REMARK  148  A    between atoms: _408  and  _409
REMARK  149  A    between atoms: _409  and  _410
REMARK  150  A    between atoms: _410  and  _411
REMARK                            x       y       z     vdW  Elec       q    Type
REMARK                         _______ _______ _______ _____ _____    ______ ____
ROOT
ATOM      1  CA  PHE A   1      -7.657  13.799  15.169  0.00  0.00    +0.149 C 
ENDROOT
BRANCH   1   2
ATOM      2  C   PHE A   1      -6.190  13.891  15.569  0.00  0.00    +0.239 C 
ATOM      3  O   PHE A   1      -5.772  13.260  16.549  0.00  0.00    -0.274 OA
ATOM      4  N   GLY A   2      -5.398  14.667  14.825  0.00  0.00    -0.297 N 
ATOM      5  H   GLY A   2      -5.794  15.167  14.003  0.00  0.00    +0.150 HD
BRANCH   4   6
ATOM      6  CA  GLY A   2      -3.989  14.822  15.150  0.00  0.00    +0.163 C 
BRANCH   6   7
ATOM      7  C   GLY A   2      -3.738  15.420  16.530  0.00  0.00    +0.229 C 
ATOM      8  O   GLY A   2      -2.764  15.052  17.189  0.00  0.00    -0.286 OA
ENDBRANCH   6   7
ENDBRANCH   4   6
ENDBRANCH   1   2
BRANCH   1   9
ATOM      9  N   PHE A   1      -8.199  15.090  14.777  0.00  0.00    -0.238 NA
ATOM     10  H   PHE A   1      -8.559  15.211  13.809  0.00  0.00    +0.142 HD
ENDBRANCH   1   9
BRANCH   1  11
ATOM     11  CB  PHE A   1      -7.843  12.816  14.011  0.00  0.00    +0.053 C 
BRANCH  11  12
ATOM     12  CG  PHE A   1      -7.331  11.451  14.281  0.00  0.00    -0.020 A 
ATOM     13  CD2 PHE A   1      -8.074  10.556  15.022  0.00  0.00    -0.004 A 
ATOM     14  CE2 PHE A   1      -7.609   9.285  15.287  0.00  0.00    -0.000 A 
ATOM     15  CZ  PHE A   1      -6.407   8.899  14.797  0.00  0.00    -0.000 A 
ATOM     16  CE1 PHE A   1      -5.639   9.796  14.050  0.00  0.00    -0.000 A 
ATOM     17  CD1 PHE A   1      -6.106  11.058  13.791  0.00  0.00    -0.004 A 
ENDBRANCH  11  12
ENDBRANCH   1  11
TORSDOF 6
REMARK  Name = ../refined-set-2016/3mzc/3mzc_pocket.pdb
REMARK  150 active torsions:
REMARK  status: ('A' for Active; 'I' for Inactive)
REMARK    1  A    between atoms: _1  and  _3
REMARK    2  A    between atoms: _3  and  _4
REMARK    3  A    between atoms: _3  and  _6
REMARK    4  A    between atoms: _6  and  _7
REMARK    5  A    between atoms: _17  and  _19
REMARK    6  A    between atoms: _19  and  _20
REMARK    7  A    between atoms: _19  and  _22
REMARK    8  A    between atoms: _22  and  _23
REMARK    9  A    between atoms: _28  and  _29
REMARK   10  A    between atoms: _31  and  _33
REMARK   11  A    between atoms: _33  and  _34
REMARK   12  A    between atoms: _33  and  _36
REMARK   13  A    between atoms: _36  and  _37
REMARK   14  A    between atoms: _40  and  _41
REMARK   15  A    between atoms: _46  and  _48
REMARK   16  A    between atoms: _48  and  _49
REMARK   17  A    between atoms: _48  and  _51
REMARK   18  A    between atoms: _51  and  _52
REMARK   19  A    between atoms: _57  and  _59
REMARK   20  A    between atoms: _59  and  _60
REMARK   21  A    between atoms: _63  and  _65
REMARK   22  A    between atoms: _65  and  _66
REMARK   23  A    between atoms: _65  and  _68
REMARK   24  A    between atoms: _68  and  _69
REMARK   25  A    between atoms: _74  and  _76
REMARK   26  A    between atoms: _76  and  _77
REMARK   27  A    between atoms: _76  and  _79
REMARK   28  A    between atoms: _79  and  _80
REMARK   29  A    between atoms: _83  and  _85
REMARK   30  A    between atoms: _85  and  _86
REMARK   31  A    between atoms: _85  and  _88
REMARK   32  A    between atoms: _88  and  _89
REMARK   33  A    between atoms: _89  and  _90
REMARK   34  A    between atoms: _95  and  _97
REMARK   35  A    between atoms: _97  and  _98
REMARK   36  A    between atoms: _97  and  _100
REMARK   37  A    between atoms: _100  and  _101
REMARK   38  A    between atoms: _107  and  _109
REMARK   39  A    between atoms: _120  and  _123
REMARK   40  A    between atoms: _123  and  _124
REMARK   41  A    between atoms: _132  and  _133
REMARK   42  A    between atoms: _141  and  _143
REMARK   43  A    between atoms: _143  and  _144
REMARK   44  A    between atoms: _143  and  _146
REMARK   45  A    between atoms: _146  and  _147
REMARK   46  A    between atoms: _147  and  _148
REMARK   47  A    between atoms: _151  and  _153
REMARK   48  A    between atoms: _153  and  _154
REMARK   49  A    between atoms: _153  and  _156
REMARK   50  A    between atoms: _156  and  _157
REMARK   51  A    between atoms: _162  and  _164
REMARK   52  A    between atoms: _164  and  _165
REMARK   53  A    between atoms: _164  and  _167
REMARK   54  A    between atoms: _167  and  _168
REMARK   55  A    between atoms: _168  and  _169
REMARK   56  A    between atoms: _172  and  _174
REMARK   57  A    between atoms: _174  and  _175
REMARK   58  A    between atoms: _174  and  _177
REMARK   59  A    between atoms: _177  and  _178
REMARK   60  A    between atoms: _181  and  _183
REMARK   61  A    between atoms: _183  and  _184
REMARK   62  A    between atoms: _183  and  _186
REMARK   63  A    between atoms: _186  and  _187
REMARK   64  A    between atoms: _188  and  ZN_420
REMARK   65  A    between atoms: _192  and  _194
REMARK   66  A    between atoms: _194  and  _195
REMARK   67  A    between atoms: _194  and  _197
REMARK   68  A    between atoms: _197  and  _198
REMARK   69  A    between atoms: _201  and  _203
REMARK   70  A    between atoms: _203  and  _204
REMARK   71  A    between atoms: _203  and  _206
REMARK   72  A    between atoms: _209  and  _211
REMARK   73  A    between atoms: _211  and  _212
REMARK   74  A    between atoms: _211  and  _214
REMARK   75  A    between atoms: _214  and  _215
REMARK   76  A    between atoms: _220  and  _222
REMARK   77  A    between atoms: _222  and  _223
REMARK   78  A    between atoms: _222  and  _225
REMARK   79  A    between atoms: _225  and  _226
REMARK   80  A    between atoms: _232  and  _234
REMARK   81  A    between atoms: _234  and  _235
REMARK   82  A    between atoms: _237  and  _239
REMARK   83  A    between atoms: _239  and  _240
REMARK   84  A    between atoms: _239  and  _242
REMARK   85  A    between atoms: _245  and  _247
REMARK   86  A    between atoms: _247  and  _248
REMARK   87  A    between atoms: _247  and  _250
REMARK   88  A    between atoms: _250  and  _251
REMARK   89  A    between atoms: _251  and  _252
REMARK   90  A    between atoms: _257  and  _259
REMARK   91  A    between atoms: _259  and  _260
REMARK   92  A    between atoms: _259  and  _262
REMARK   93  A    between atoms: _262  and  _263
REMARK   94  A    between atoms: _266  and  _268
REMARK   95  A    between atoms: _268  and  _269
REMARK   96  A    between atoms: _272  and  _274
REMARK   97  A    between atoms: _274  and  _275
REMARK   98  A    between atoms: _274  and  _277
REMARK   99  A    between atoms: _280  and  _282
REMARK  100  A    between atoms: _282  and  _283
REMARK  101  A    between atoms: _282  and  _285
REMARK  102  A    between atoms: _285  and  _286
REMARK  103  A    between atoms: _289  and  _291
REMARK  104  A    between atoms: _291  and  _292
REMARK  105  A    between atoms: _294  and  _296
REMARK  106  A    between atoms: _296  and  _297
REMARK  107  A    between atoms: _296  and  _299
REMARK  108  A    between atoms: _299  and  _300
REMARK  109  A    between atoms: _302  and  _304
REMARK  110  A    between atoms: _304  and  _305
REMARK  111  A    between atoms: _304  and  _307
REMARK  112  A    between atoms: _307  and  _308
REMARK  113  A    between atoms: _311  and  _313
REMARK  114  A    between atoms: _313  and  _314
REMARK  115  A    between atoms: _313  and  _316
REMARK  116  A    between atoms: _316  and  _317
REMARK  117  A    between atoms: _320  and  _322
REMARK  118  A    between atoms: _322  and  _323
REMARK  119  A    between atoms: _322  and  _325
REMARK  120  A    between atoms: _325  and  _326
REMARK  121  A    between atoms: _330  and  _331
REMARK  122  A    between atoms: _337  and  _338
REMARK  123  A    between atoms: _343  and  _345
REMARK  124  A    between atoms: _345  and  _346
REMARK  125  A    between atoms: _345  and  _348
REMARK  126  A    between atoms: _348  and  _349
REMARK  127  A    between atoms: _352  and  _354
REMARK  128  A    between atoms: _354  and  _355
REMARK  129  A    between atoms: _354  and  _357
REMARK  130  A    between atoms: _357  and  _358
REMARK  131  A    between atoms: _361  and  _363
REMARK  132  A    between atoms: _363  and  _364
REMARK  133  A    between atoms: _363  and  _366
REMARK  134  A    between atoms: _368  and  _370
REMARK  135  A    between atoms: _370  and  _371
REMARK  136  A    between atoms: _370  and  _373
REMARK  137  A    between atoms: _376  and  _378
REMARK  138  A    between atoms: _378  and  _379
REMARK  139  A    between atoms: _378  and  _381
REMARK  140  A    between atoms: _381  and  _382
REMARK  141  A    between atoms: _392  and  _394
REMARK  142  A    between atoms: _394  and  _395
REMARK  143  A    between atoms: _394  and  _397
REMARK  144  A    between atoms: _397  and  _398
REMARK  145  A    between atoms: _403  and  _405
REMARK  146  A    between atoms: _405  and  _406
REMARK  147  A    between atoms: _405  and  _408
REMARK  148  A    between atoms: _408  and  _409
REMARK  149  A    between atoms: _409  and  _410
REMARK  150  A    between atoms: _410  and  _411
REMARK                            x       y       z     vdW  Elec       q    Type
REMARK                         _______ _______ _______ _____ _____    ______ ____
ROOT
ATOM      1  C   VAL A   1      -2.807  11.902  20.681  0.00  0.00    +0.238 C 
ATOM      2  O   VAL A   1      -2.095  11.038  21.202  0.00  0.00    -0.274 OA
ATOM      3  N   GLN A   2      -2.653  13.211  20.907  0.00  0.00    -0.298 N 
ATOM      4  H   GLN A   2      -3.238  13.887  20.376  0.00  0.00    +0.150 HD
ENDROOT
BRANCH   1   5
ATOM      5  CA  VAL A   1      -3.915  11.485  19.719  0.00  0.00    +0.145 C 
BRANCH   5   6
ATOM      6  CB  VAL A   1      -3.279  10.810  18.471  0.00  0.00    +0.025 C 
ATOM      7  CG2 VAL A   1      -2.410  11.780  17.691  0.00  0.00    +0.002 C 
ATOM      8  CG1 VAL A   1      -4.355  10.220  17.588  0.00  0.00    +0.002 C 
ENDBRANCH   5   6
BRANCH   5   9
ATOM      9  N   VAL A   1      -4.821  12.590  19.371  0.00  0.00    -0.238 NA
ATOM     10  H   VAL A   1      -4.818  12.990  18.411  0.00  0.00    +0.142 HD
ENDBRANCH   5   9
ENDBRANCH   1   5
BRANCH   3  11
ATOM     11  CA  GLN A   2      -1.685  13.720  21.881  0.00  0.00    +0.137 C 
BRANCH  11  12
ATOM     12  C   GLN A   2      -2.268  13.868  23.289  0.00  0.00    +0.227 C 
ATOM     13  O   GLN A   2      -1.619  14.426  24.172  0.00  0.00    -0.286 OA
ENDBRANCH  11  12
BRANCH  11  14
ATOM     14  CB  GLN A   2      -1.116  15.082  21.423  0.00  0.00    +0.037 C 
BRANCH  14  15
ATOM     15  CG  GLN A   2      -0.573  15.035  20.011  0.00  0.00    +0.087 C 
BRANCH  15  16
ATOM     16  CD  GLN A   2      -0.033  16.364  19.525  0.00  0.00    +0.219 C 
ATOM     17  OE1 GLN A   2       0.787  16.998  20.191  0.00  0.00    -0.275 OA
ATOM     18  NE2 GLN A   2      -0.500  16.799  18.358  0.00  0.00    -0.329 N 
ATOM     19 HE21 GLN A   2      -0.173  17.708  17.974  0.00  0.00    +0.145 HD
ATOM     20 HE22 GLN A   2      -1.192  16.230  17.830  0.00  0.00    +0.145 HD
ENDBRANCH  15  16
ENDBRANCH  14  15
ENDBRANCH  11  14
ENDBRANCH   3  11
TORSDOF 8
REMARK  Name = ../refined-set-2016/3mzc/3mzc_pocket.pdb
REMARK  150 active torsions:
REMARK  status: ('A' for Active; 'I' for Inactive)
REMARK    1  A    between atoms: _1  and  _3
REMARK    2  A    between atoms: _3  and  _4
REMARK    3  A    between atoms: _3  and  _6
REMARK    4  A    between atoms: _6  and  _7
REMARK    5  A    between atoms: _17  and  _19
REMARK    6  A    between atoms: _19  and  _20
REMARK    7  A    between atoms: _19  and  _22
REMARK    8  A    between atoms: _22  and  _23
REMARK    9  A    between atoms: _28  and  _29
REMARK   10  A    between atoms: _31  and  _33
REMARK   11  A    between atoms: _33  and  _34
REMARK   12  A    between atoms: _33  and  _36
REMARK   13  A    between atoms: _36  and  _37
REMARK   14  A    between atoms: _40  and  _41
REMARK   15  A    between atoms: _46  and  _48
REMARK   16  A    between atoms: _48  and  _49
REMARK   17  A    between atoms: _48  and  _51
REMARK   18  A    between atoms: _51  and  _52
REMARK   19  A    between atoms: _57  and  _59
REMARK   20  A    between atoms: _59  and  _60
REMARK   21  A    between atoms: _63  and  _65
REMARK   22  A    between atoms: _65  and  _66
REMARK   23  A    between atoms: _65  and  _68
REMARK   24  A    between atoms: _68  and  _69
REMARK   25  A    between atoms: _74  and  _76
REMARK   26  A    between atoms: _76  and  _77
REMARK   27  A    between atoms: _76  and  _79
REMARK   28  A    between atoms: _79  and  _80
REMARK   29  A    between atoms: _83  and  _85
REMARK   30  A    between atoms: _85  and  _86
REMARK   31  A    between atoms: _85  and  _88
REMARK   32  A    between atoms: _88  and  _89
REMARK   33  A    between atoms: _89  and  _90
REMARK   34  A    between atoms: _95  and  _97
REMARK   35  A    between atoms: _97  and  _98
REMARK   36  A    between atoms: _97  and  _100
REMARK   37  A    between atoms: _100  and  _101
REMARK   38  A    between atoms: _107  and  _109
REMARK   39  A    between atoms: _120  and  _123
REMARK   40  A    between atoms: _123  and  _124
REMARK   41  A    between atoms: _132  and  _133
REMARK   42  A    between atoms: _141  and  _143
REMARK   43  A    between atoms: _143  and  _144
REMARK   44  A    between atoms: _143  and  _146
REMARK   45  A    between atoms: _146  and  _147
REMARK   46  A    between atoms: _147  and  _148
REMARK   47  A    between atoms: _151  and  _153
REMARK   48  A    between atoms: _153  and  _154
REMARK   49  A    between atoms: _153  and  _156
REMARK   50  A    between atoms: _156  and  _157
REMARK   51  A    between atoms: _162  and  _164
REMARK   52  A    between atoms: _164  and  _165
REMARK   53  A    between atoms: _164  and  _167
REMARK   54  A    between atoms: _167  and  _168
REMARK   55  A    between atoms: _168  and  _169
REMARK   56  A    between atoms: _172  and  _174
REMARK   57  A    between atoms: _174  and  _175
REMARK   58  A    between atoms: _174  and  _177
REMARK   59  A    between atoms: _177  and  _178
REMARK   60  A    between atoms: _181  and  _183
REMARK   61  A    between atoms: _183  and  _184
REMARK   62  A    between atoms: _183  and  _186
REMARK   63  A    between atoms: _186  and  _187
REMARK   64  A    between atoms: _188  and  ZN_420
REMARK   65  A    between atoms: _192  and  _194
REMARK   66  A    between atoms: _194  and  _195
REMARK   67  A    between atoms: _194  and  _197
REMARK   68  A    between atoms: _197  and  _198
REMARK   69  A    between atoms: _201  and  _203
REMARK   70  A    between atoms: _203  and  _204
REMARK   71  A    between atoms: _203  and  _206
REMARK   72  A    between atoms: _209  and  _211
REMARK   73  A    between atoms: _211  and  _212
REMARK   74  A    between atoms: _211  and  _214
REMARK   75  A    between atoms: _214  and  _215
REMARK   76  A    between atoms: _220  and  _222
REMARK   77  A    between atoms: _222  and  _223
REMARK   78  A    between atoms: _222  and  _225
REMARK   79  A    between atoms: _225  and  _226
REMARK   80  A    between atoms: _232  and  _234
REMARK   81  A    between atoms: _234  and  _235
REMARK   82  A    between atoms: _237  and  _239
REMARK   83  A    between atoms: _239  and  _240
REMARK   84  A    between atoms: _239  and  _242
REMARK   85  A    between atoms: _245  and  _247
REMARK   86  A    between atoms: _247  and  _248
REMARK   87  A    between atoms: _247  and  _250
REMARK   88  A    between atoms: _250  and  _251
REMARK   89  A    between atoms: _251  and  _252
REMARK   90  A    between atoms: _257  and  _259
REMARK   91  A    between atoms: _259  and  _260
REMARK   92  A    between atoms: _259  and  _262
REMARK   93  A    between atoms: _262  and  _263
REMARK   94  A    between atoms: _266  and  _268
REMARK   95  A    between atoms: _268  and  _269
REMARK   96  A    between atoms: _272  and  _274
REMARK   97  A    between atoms: _274  and  _275
REMARK   98  A    between atoms: _274  and  _277
REMARK   99  A    between atoms: _280  and  _282
REMARK  100  A    between atoms: _282  and  _283
REMARK  101  A    between atoms: _282  and  _285
REMARK  102  A    between atoms: _285  and  _286
REMARK  103  A    between atoms: _289  and  _291
REMARK  104  A    between atoms: _291  and  _292
REMARK  105  A    between atoms: _294  and  _296
REMARK  106  A    between atoms: _296  and  _297
REMARK  107  A    between atoms: _296  and  _299
REMARK  108  A    between atoms: _299  and  _300
REMARK  109  A    between atoms: _302  and  _304
REMARK  110  A    between atoms: _304  and  _305
REMARK  111  A    between atoms: _304  and  _307
REMARK  112  A    between atoms: _307  and  _308
REMARK  113  A    between atoms: _311  and  _313
REMARK  114  A    between atoms: _313  and  _314
REMARK  115  A    between atoms: _313  and  _316
REMARK  116  A    between atoms: _316  and  _317
REMARK  117  A    between atoms: _320  and  _322
REMARK  118  A    between atoms: _322  and  _323
REMARK  119  A    between atoms: _322  and  _325
REMARK  120  A    between atoms: _325  and  _326
REMARK  121  A    between atoms: _330  and  _331
REMARK  122  A    between atoms: _337  and  _338
REMARK  123  A    between atoms: _343  and  _345
REMARK  124  A    between atoms: _345  and  _346
REMARK  125  A    between atoms: _345  and  _348
REMARK  126  A    between atoms: _348  and  _349
REMARK  127  A    between atoms: _352  and  _354
REMARK  128  A    between atoms: _354  and  _355
REMARK  129  A    between atoms: _354  and  _357
REMARK  130  A    between atoms: _357  and  _358
REMARK  131  A    between atoms: _361  and  _363
REMARK  132  A    between atoms: _363  and  _364
REMARK  133  A    between atoms: _363  and  _366
REMARK  134  A    between atoms: _368  and  _370
REMARK  135  A    between atoms: _370  and  _371
REMARK  136  A    between atoms: _370  and  _373
REMARK  137  A    between atoms: _376  and  _378
REMARK  138  A    between atoms: _378  and  _379
REMARK  139  A    between atoms: _378  and  _381
REMARK  140  A    between atoms: _381  and  _382
REMARK  141  A    between atoms: _392  and  _394
REMARK  142  A    between atoms: _394  and  _395
REMARK  143  A    between atoms: _394  and  _397
REMARK  144  A    between atoms: _397  and  _398
REMARK  145  A    between atoms: _403  and  _405
REMARK  146  A    between atoms: _405  and  _406
REMARK  147  A    between atoms: _405  and  _408
REMARK  148  A    between atoms: _408  and  _409
REMARK  149  A    between atoms: _409  and  _410
REMARK  150  A    between atoms: _410  and  _411
REMARK                            x       y       z     vdW  Elec       q    Type
REMARK                         _______ _______ _______ _____ _____    ______ ____
ROOT
ATOM      1  C   ALA A   2     -12.305   4.989  20.842  0.00  0.00    +0.241 C 
ATOM      2  N   VAL A   3     -11.827   3.775  21.094  0.00  0.00    -0.297 N 
ATOM      3  H   VAL A   3     -11.400   3.558  22.017  0.00  0.00    +0.150 HD
ATOM      4  O   ALA A   2     -12.732   5.304  19.721  0.00  0.00    -0.273 OA
ENDROOT
BRANCH   1   5
ATOM      5  CA  ALA A   2     -12.224   5.993  21.972  0.00  0.00    +0.149 C 
ATOM      6  CB  ALA A   2     -13.607   6.404  22.421  0.00  0.00    +0.031 C 
BRANCH   5   9
ATOM      7  C   LEU A   1     -10.450   7.652  22.115  0.00  0.00    +0.238 C 
ATOM      8  O   LEU A   1     -10.214   7.382  23.286  0.00  0.00    -0.274 OA
ATOM      9  N   ALA A   2     -11.471   7.134  21.452  0.00  0.00    -0.297 N 
ATOM     10  H   ALA A   2     -11.745   7.548  20.538  0.00  0.00    +0.150 HD
BRANCH   7  11
ATOM     11  CA  LEU A   1      -9.569   8.594  21.318  0.00  0.00    +0.145 C 
BRANCH  11  12
ATOM     12  N   LEU A   1      -8.938   9.564  22.199  0.00  0.00    -0.238 NA
ATOM     13  H   LEU A   1      -8.352   9.218  22.985  0.00  0.00    +0.142 HD
ENDBRANCH  11  12
BRANCH  11  14
ATOM     14  CB  LEU A   1      -8.527   7.759  20.573  0.00  0.00    +0.026 C 
BRANCH  14  15
ATOM     15  CG  LEU A   1      -8.094   8.275  19.205  0.00  0.00    +0.002 C 
ATOM     16  CD2 LEU A   1      -7.576   9.674  19.285  0.00  0.00    +0.000 C 
ATOM     17  CD1 LEU A   1      -7.053   7.388  18.521  0.00  0.00    +0.000 C 
ENDBRANCH  14  15
ENDBRANCH  11  14
ENDBRANCH   7  11
ENDBRANCH   5   9
ENDBRANCH   1   5
BRANCH   2  18
ATOM     18  CA  VAL A   3     -11.910   2.757  20.063  0.00  0.00    +0.149 C 
BRANCH  18  19
ATOM     19  C   VAL A   3     -12.846   1.674  20.549  0.00  0.00    +0.241 C 
ATOM     20  O   VAL A   3     -12.672   1.138  21.655  0.00  0.00    -0.273 OA
ATOM     21  N   LEU A   4     -13.860   1.411  19.735  0.00  0.00    -0.298 N 
ATOM     22  H   LEU A   4     -13.962   1.995  18.880  0.00  0.00    +0.150 HD
BRANCH  21  23
ATOM     23  CA  LEU A   4     -14.835   0.362  19.960  0.00  0.00    +0.137 C 
BRANCH  23  24
ATOM     24  C   LEU A   4     -14.316  -0.913  19.285  0.00  0.00    +0.227 C 
ATOM     25  O   LEU A   4     -14.137  -0.963  18.060  0.00  0.00    -0.286 OA
ENDBRANCH  23  24
BRANCH  23  26
ATOM     26  CB  LEU A   4     -16.180   0.792  19.385  0.00  0.00    +0.028 C 
BRANCH  26  27
ATOM     27  CG  LEU A   4     -17.372  -0.132  19.583  0.00  0.00    +0.002 C 
ATOM     28  CD2 LEU A   4     -17.591  -0.436  21.056  0.00  0.00    +0.000 C 
ATOM     29  CD1 LEU A   4     -18.621   0.522  18.968  0.00  0.00    +0.000 C 
ENDBRANCH  26  27
ENDBRANCH  23  26
ENDBRANCH  21  23
ENDBRANCH  18  19
BRANCH  18  30
ATOM     30  CB  VAL A   3     -10.518   2.165  19.706  0.00  0.00    +0.027 C 
ATOM     31  CG2 VAL A   3      -9.557   3.256  19.295  0.00  0.00    +0.002 C 
ATOM     32  CG1 VAL A   3     -10.643   1.115  18.574  0.00  0.00    +0.002 C 
ENDBRANCH  18  30
ENDBRANCH   2  18
TORSDOF 13
REMARK  Name = ../refined-set-2016/3mzc/3mzc_pocket.pdb
REMARK  150 active torsions:
REMARK  status: ('A' for Active; 'I' for Inactive)
REMARK    1  A    between atoms: _1  and  _3
REMARK    2  A    between atoms: _3  and  _4
REMARK    3  A    between atoms: _3  and  _6
REMARK    4  A    between atoms: _6  and  _7
REMARK    5  A    between atoms: _17  and  _19
REMARK    6  A    between atoms: _19  and  _20
REMARK    7  A    between atoms: _19  and  _22
REMARK    8  A    between atoms: _22  and  _23
REMARK    9  A    between atoms: _28  and  _29
REMARK   10  A    between atoms: _31  and  _33
REMARK   11  A    between atoms: _33  and  _34
REMARK   12  A    between atoms: _33  and  _36
REMARK   13  A    between atoms: _36  and  _37
REMARK   14  A    between atoms: _40  and  _41
REMARK   15  A    between atoms: _46  and  _48
REMARK   16  A    between atoms: _48  and  _49
REMARK   17  A    between atoms: _48  and  _51
REMARK   18  A    between atoms: _51  and  _52
REMARK   19  A    between atoms: _57  and  _59
REMARK   20  A    between atoms: _59  and  _60
REMARK   21  A    between atoms: _63  and  _65
REMARK   22  A    between atoms: _65  and  _66
REMARK   23  A    between atoms: _65  and  _68
REMARK   24  A    between atoms: _68  and  _69
REMARK   25  A    between atoms: _74  and  _76
REMARK   26  A    between atoms: _76  and  _77
REMARK   27  A    between atoms: _76  and  _79
REMARK   28  A    between atoms: _79  and  _80
REMARK   29  A    between atoms: _83  and  _85
REMARK   30  A    between atoms: _85  and  _86
REMARK   31  A    between atoms: _85  and  _88
REMARK   32  A    between atoms: _88  and  _89
REMARK   33  A    between atoms: _89  and  _90
REMARK   34  A    between atoms: _95  and  _97
REMARK   35  A    between atoms: _97  and  _98
REMARK   36  A    between atoms: _97  and  _100
REMARK   37  A    between atoms: _100  and  _101
REMARK   38  A    between atoms: _107  and  _109
REMARK   39  A    between atoms: _120  and  _123
REMARK   40  A    between atoms: _123  and  _124
REMARK   41  A    between atoms: _132  and  _133
REMARK   42  A    between atoms: _141  and  _143
REMARK   43  A    between atoms: _143  and  _144
REMARK   44  A    between atoms: _143  and  _146
REMARK   45  A    between atoms: _146  and  _147
REMARK   46  A    between atoms: _147  and  _148
REMARK   47  A    between atoms: _151  and  _153
REMARK   48  A    between atoms: _153  and  _154
REMARK   49  A    between atoms: _153  and  _156
REMARK   50  A    between atoms: _156  and  _157
REMARK   51  A    between atoms: _162  and  _164
REMARK   52  A    between atoms: _164  and  _165
REMARK   53  A    between atoms: _164  and  _167
REMARK   54  A    between atoms: _167  and  _168
REMARK   55  A    between atoms: _168  and  _169
REMARK   56  A    between atoms: _172  and  _174
REMARK   57  A    between atoms: _174  and  _175
REMARK   58  A    between atoms: _174  and  _177
REMARK   59  A    between atoms: _177  and  _178
REMARK   60  A    between atoms: _181  and  _183
REMARK   61  A    between atoms: _183  and  _184
REMARK   62  A    between atoms: _183  and  _186
REMARK   63  A    between atoms: _186  and  _187
REMARK   64  A    between atoms: _188  and  ZN_420
REMARK   65  A    between atoms: _192  and  _194
REMARK   66  A    between atoms: _194  and  _195
REMARK   67  A    between atoms: _194  and  _197
REMARK   68  A    between atoms: _197  and  _198
REMARK   69  A    between atoms: _201  and  _203
REMARK   70  A    between atoms: _203  and  _204
REMARK   71  A    between atoms: _203  and  _206
REMARK   72  A    between atoms: _209  and  _211
REMARK   73  A    between atoms: _211  and  _212
REMARK   74  A    between atoms: _211  and  _214
REMARK   75  A    between atoms: _214  and  _215
REMARK   76  A    between atoms: _220  and  _222
REMARK   77  A    between atoms: _222  and  _223
REMARK   78  A    between atoms: _222  and  _225
REMARK   79  A    between atoms: _225  and  _226
REMARK   80  A    between atoms: _232  and  _234
REMARK   81  A    between atoms: _234  and  _235
REMARK   82  A    between atoms: _237  and  _239
REMARK   83  A    between atoms: _239  and  _240
REMARK   84  A    between atoms: _239  and  _242
REMARK   85  A    between atoms: _245  and  _247
REMARK   86  A    between atoms: _247  and  _248
REMARK   87  A    between atoms: _247  and  _250
REMARK   88  A    between atoms: _250  and  _251
REMARK   89  A    between atoms: _251  and  _252
REMARK   90  A    between atoms: _257  and  _259
REMARK   91  A    between atoms: _259  and  _260
REMARK   92  A    between atoms: _259  and  _262
REMARK   93  A    between atoms: _262  and  _263
REMARK   94  A    between atoms: _266  and  _268
REMARK   95  A    between atoms: _268  and  _269
REMARK   96  A    between atoms: _272  and  _274
REMARK   97  A    between atoms: _274  and  _275
REMARK   98  A    between atoms: _274  and  _277
REMARK   99  A    between atoms: _280  and  _282
REMARK  100  A    between atoms: _282  and  _283
REMARK  101  A    between atoms: _282  and  _285
REMARK  102  A    between atoms: _285  and  _286
REMARK  103  A    between atoms: _289  and  _291
REMARK  104  A    between atoms: _291  and  _292
REMARK  105  A    between atoms: _294  and  _296
REMARK  106  A    between atoms: _296  and  _297
REMARK  107  A    between atoms: _296  and  _299
REMARK  108  A    between atoms: _299  and  _300
REMARK  109  A    between atoms: _302  and  _304
REMARK  110  A    between atoms: _304  and  _305
REMARK  111  A    between atoms: _304  and  _307
REMARK  112  A    between atoms: _307  and  _308
REMARK  113  A    between atoms: _311  and  _313
REMARK  114  A    between atoms: _313  and  _314
REMARK  115  A    between atoms: _313  and  _316
REMARK  116  A    between atoms: _316  and  _317
REMARK  117  A    between atoms: _320  and  _322
REMARK  118  A    between atoms: _322  and  _323
REMARK  119  A    between atoms: _322  and  _325
REMARK  120  A    between atoms: _325  and  _326
REMARK  121  A    between atoms: _330  and  _331
REMARK  122  A    between atoms: _337  and  _338
REMARK  123  A    between atoms: _343  and  _345
REMARK  124  A    between atoms: _345  and  _346
REMARK  125  A    between atoms: _345  and  _348
REMARK  126  A    between atoms: _348  and  _349
REMARK  127  A    between atoms: _352  and  _354
REMARK  128  A    between atoms: _354  and  _355
REMARK  129  A    between atoms: _354  and  _357
REMARK  130  A    between atoms: _357  and  _358
REMARK  131  A    between atoms: _361  and  _363
REMARK  132  A    between atoms: _363  and  _364
REMARK  133  A    between atoms: _363  and  _366
REMARK  134  A    between atoms: _368  and  _370
REMARK  135  A    between atoms: _370  and  _371
REMARK  136  A    between atoms: _370  and  _373
REMARK  137  A    between atoms: _376  and  _378
REMARK  138  A    between atoms: _378  and  _379
REMARK  139  A    between atoms: _378  and  _381
REMARK  140  A    between atoms: _381  and  _382
REMARK  141  A    between atoms: _392  and  _394
REMARK  142  A    between atoms: _394  and  _395
REMARK  143  A    between atoms: _394  and  _397
REMARK  144  A    between atoms: _397  and  _398
REMARK  145  A    between atoms: _403  and  _405
REMARK  146  A    between atoms: _405  and  _406
REMARK  147  A    between atoms: _405  and  _408
REMARK  148  A    between atoms: _408  and  _409
REMARK  149  A    between atoms: _409  and  _410
REMARK  150  A    between atoms: _410  and  _411
REMARK                            x       y       z     vdW  Elec       q    Type
REMARK                         _______ _______ _______ _____ _____    ______ ____
ROOT
ATOM      1  CA  THR A   5       0.452  -0.031  16.234  0.00  0.00    +0.176 C 
ENDROOT
BRANCH   1   2
ATOM      2  C   THR A   5       1.259   1.218  16.525  0.00  0.00    +0.246 C 
ATOM      3  O   THR A   5       0.740   2.162  17.128  0.00  0.00    -0.273 OA
ATOM      4  N   PRO A   6       2.505   1.251  16.044  0.00  0.00    -0.272 N 
ATOM      5  CA  PRO A   6       3.239   2.507  16.131  0.00  0.00    +0.152 C 
ATOM      6  CB  PRO A   6       4.487   2.220  15.288  0.00  0.00    +0.031 C 
ATOM      7  CG  PRO A   6       4.738   0.742  15.533  0.00  0.00    +0.024 C 
ATOM      8  CD  PRO A   6       3.336   0.175  15.453  0.00  0.00    +0.094 C 
BRANCH   5   9
ATOM      9  C   PRO A   6       2.372   3.631  15.561  0.00  0.00    +0.244 C 
ATOM     10  N   PRO A   7       2.419   4.814  16.180  0.00  0.00    -0.272 N 
ATOM     11  CA  PRO A   7       3.328   5.239  17.247  0.00  0.00    +0.152 C 
ATOM     12  CB  PRO A   7       3.328   6.767  17.083  0.00  0.00    +0.031 C 
ATOM     13  CG  PRO A   7       1.997   7.077  16.593  0.00  0.00    +0.024 C 
ATOM     14  CD  PRO A   7       1.587   5.932  15.694  0.00  0.00    +0.094 C 
ATOM     15  O   PRO A   6       1.671   3.426  14.551  0.00  0.00    -0.273 OA
BRANCH  11  16
ATOM     16  C   PRO A   7       2.929   4.862  18.687  0.00  0.00    +0.241 C 
ATOM     17  O   PRO A   7       3.542   5.354  19.628  0.00  0.00    -0.273 OA
ATOM     18  N   LEU A   8       1.917   4.002  18.862  0.00  0.00    -0.297 N 
ATOM     19  H   LEU A   8       1.316   3.760  18.048  0.00  0.00    +0.150 HD
BRANCH  18  20
ATOM     20  CA  LEU A   8       1.627   3.387  20.169  0.00  0.00    +0.149 C 
BRANCH  20  21
ATOM     21  C   LEU A   8       1.236   4.393  21.257  0.00  0.00    +0.241 C 
ATOM     22  O   LEU A   8       1.344   4.131  22.450  0.00  0.00    -0.273 OA
ATOM     23  N   LEU A   9       0.686   5.526  20.810  0.00  0.00    -0.298 N 
ATOM     24  H   LEU A   9       0.487   5.624  19.794  0.00  0.00    +0.150 HD
BRANCH  23  25
ATOM     25  CA  LEU A   9       0.359   6.620  21.697  0.00  0.00    +0.137 C 
BRANCH  25  26
ATOM     26  C   LEU A   9      -0.698   6.217  22.718  0.00  0.00    +0.227 C 
ATOM     27  O   LEU A   9      -1.685   5.533  22.388  0.00  0.00    -0.286 OA
ENDBRANCH  25  26
BRANCH  25  28
ATOM     28  CB  LEU A   9      -0.121   7.839  20.888  0.00  0.00    +0.028 C 
BRANCH  28  29
ATOM     29  CG  LEU A   9       0.922   8.398  19.913  0.00  0.00    +0.002 C 
ATOM     30  CD2 LEU A   9       2.074   9.010  20.719  0.00  0.00    +0.000 C 
ATOM     31  CD1 LEU A   9       0.307   9.435  18.993  0.00  0.00    +0.000 C 
ENDBRANCH  28  29
ENDBRANCH  25  28
ENDBRANCH  23  25
ENDBRANCH  20  21
BRANCH  20  32
ATOM     32  CB  LEU A   8       2.808   2.509  20.622  0.00  0.00    +0.029 C 
BRANCH  32  33
ATOM     33  CG  LEU A   8       3.125   1.309  19.707  0.00  0.00    +0.002 C 
ATOM     34  CD2 LEU A   8       4.455   0.696  20.095  0.00  0.00    +0.000 C 
ATOM     35  CD1 LEU A   8       2.034   0.238  19.707  0.00  0.00    +0.000 C 
ENDBRANCH  32  33
ENDBRANCH  20  32
ENDBRANCH  18  20
ENDBRANCH  11  16
ENDBRANCH   5   9
ENDBRANCH   1   2
BRANCH   1  38
ATOM     36  C   THR A   4      -0.921  -1.133  17.938  0.00  0.00    +0.243 C 
ATOM     37  O   THR A   4      -0.343  -2.226  17.772  0.00  0.00    -0.273 OA
ATOM     38  N   THR A   5      -0.675  -0.070  17.167  0.00  0.00    -0.295 N 
ATOM     39  H   THR A   5      -1.304   0.756  17.232  0.00  0.00    +0.150 HD
BRANCH  36  40
ATOM     40  CA  THR A   4      -1.955  -0.976  19.051  0.00  0.00    +0.176 C 
BRANCH  40  43
ATOM     41  C   LEU A   3      -2.163   1.290  19.830  0.00  0.00    +0.241 C 
ATOM     42  O   LEU A   3      -1.157   1.137  20.529  0.00  0.00    -0.273 OA
ATOM     43  N   THR A   4      -2.631   0.323  19.058  0.00  0.00    -0.295 N 
ATOM     44  H   THR A   4      -3.469   0.483  18.463  0.00  0.00    +0.150 HD
BRANCH  41  45
ATOM     45  CA  LEU A   3      -2.897   2.607  19.796  0.00  0.00    +0.149 C 
BRANCH  45  48
ATOM     46  C   SER A   2      -3.467   2.457  22.154  0.00  0.00    +0.243 C 
ATOM     47  O   SER A   2      -4.241   1.507  21.956  0.00  0.00    -0.273 OA
ATOM     48  N   LEU A   3      -2.919   3.138  21.154  0.00  0.00    -0.297 N 
ATOM     49  H   LEU A   3      -2.497   4.069  21.343  0.00  0.00    +0.150 HD
BRANCH  46  50
ATOM     50  CA  SER A   2      -3.039   2.866  23.562  0.00  0.00    +0.178 C 
BRANCH  50  53
ATOM     51  C   GLY A   1      -4.240   2.894  25.672  0.00  0.00    +0.240 C 
ATOM     52  O   GLY A   1      -4.092   4.110  25.813  0.00  0.00    -0.274 OA
ATOM     53  N   SER A   2      -3.844   2.233  24.596  0.00  0.00    -0.295 N 
ATOM     54  H   SER A   2      -4.115   1.235  24.487  0.00  0.00    +0.150 HD
BRANCH  51  55
ATOM     55  CA  GLY A   1      -4.827   2.031  26.758  0.00  0.00    +0.169 C 
BRANCH  55  56
ATOM     56  N   GLY A   1      -5.907   2.664  27.487  0.00  0.00    -0.236 NA
ATOM     57  H   GLY A   1      -6.514   3.363  27.013  0.00  0.00    +0.142 HD
ENDBRANCH  55  56
ENDBRANCH  51  55
ENDBRANCH  50  53
BRANCH  50  58
ATOM     58  CB  SER A   2      -1.549   2.481  23.729  0.00  0.00    +0.166 C 
BRANCH  58  59
ATOM     59  OG  SER A   2      -1.267   1.124  23.321  0.00  0.00    -0.380 OA
ATOM     60  H   SER A   2      -1.502   1.012  22.366  0.00  0.00    +0.211 HD
ENDBRANCH  58  59
ENDBRANCH  50  58
ENDBRANCH  46  50
ENDBRANCH  45  48
BRANCH  45  61
ATOM     61  CB  LEU A   3      -2.163   3.547  18.843  0.00  0.00    +0.029 C 
BRANCH  61  62
ATOM     62  CG  LEU A   3      -2.698   4.973  18.773  0.00  0.00    +0.002 C 
ATOM     63  CD2 LEU A   3      -4.181   5.000  18.396  0.00  0.00    +0.000 C 
ATOM     64  CD1 LEU A   3      -1.823   5.745  17.788  0.00  0.00    +0.000 C 
ENDBRANCH  61  62
ENDBRANCH  45  61
ENDBRANCH  41  45
ENDBRANCH  40  43
BRANCH  40  65
ATOM     65  CB  THR A   4      -2.968  -2.106  18.888  0.00  0.00    +0.137 C 
ATOM     66  CG2 THR A   4      -4.047  -2.047  19.986  0.00  0.00    +0.034 C 
BRANCH  65  67
ATOM     67  OG1 THR A   4      -3.535  -2.010  17.574  0.00  0.00    -0.382 OA
ATOM     68  HG1 THR A   4      -4.196  -2.736  17.447  0.00  0.00    +0.210 HD
ENDBRANCH  65  67
ENDBRANCH  40  65
ENDBRANCH  36  40
ENDBRANCH   1  38
BRANCH   1  69
ATOM     69  CB  THR A   5       0.052   0.023  14.754  0.00  0.00    +0.137 C 
ATOM     70  CG2 THR A   5      -1.067  -0.927  14.461  0.00  0.00    +0.034 C 
BRANCH  69  71
ATOM     71  OG1 THR A   5      -0.359   1.355  14.405  0.00  0.00    -0.382 OA
ATOM     72  HG1 THR A   5      -0.615   1.380  13.449  0.00  0.00    +0.210 HD
ENDBRANCH  69  71
ENDBRANCH   1  69
TORSDOF 28
REMARK  Name = ../refined-set-2016/3mzc/3mzc_pocket.pdb
REMARK  150 active torsions:
REMARK  status: ('A' for Active; 'I' for Inactive)
REMARK    1  A    between atoms: _1  and  _3
REMARK    2  A    between atoms: _3  and  _4
REMARK    3  A    between atoms: _3  and  _6
REMARK    4  A    between atoms: _6  and  _7
REMARK    5  A    between atoms: _17  and  _19
REMARK    6  A    between atoms: _19  and  _20
REMARK    7  A    between atoms: _19  and  _22
REMARK    8  A    between atoms: _22  and  _23
REMARK    9  A    between atoms: _28  and  _29
REMARK   10  A    between atoms: _31  and  _33
REMARK   11  A    between atoms: _33  and  _34
REMARK   12  A    between atoms: _33  and  _36
REMARK   13  A    between atoms: _36  and  _37
REMARK   14  A    between atoms: _40  and  _41
REMARK   15  A    between atoms: _46  and  _48
REMARK   16  A    between atoms: _48  and  _49
REMARK   17  A    between atoms: _48  and  _51
REMARK   18  A    between atoms: _51  and  _52
REMARK   19  A    between atoms: _57  and  _59
REMARK   20  A    between atoms: _59  and  _60
REMARK   21  A    between atoms: _63  and  _65
REMARK   22  A    between atoms: _65  and  _66
REMARK   23  A    between atoms: _65  and  _68
REMARK   24  A    between atoms: _68  and  _69
REMARK   25  A    between atoms: _74  and  _76
REMARK   26  A    between atoms: _76  and  _77
REMARK   27  A    between atoms: _76  and  _79
REMARK   28  A    between atoms: _79  and  _80
REMARK   29  A    between atoms: _83  and  _85
REMARK   30  A    between atoms: _85  and  _86
REMARK   31  A    between atoms: _85  and  _88
REMARK   32  A    between atoms: _88  and  _89
REMARK   33  A    between atoms: _89  and  _90
REMARK   34  A    between atoms: _95  and  _97
REMARK   35  A    between atoms: _97  and  _98
REMARK   36  A    between atoms: _97  and  _100
REMARK   37  A    between atoms: _100  and  _101
REMARK   38  A    between atoms: _107  and  _109
REMARK   39  A    between atoms: _120  and  _123
REMARK   40  A    between atoms: _123  and  _124
REMARK   41  A    between atoms: _132  and  _133
REMARK   42  A    between atoms: _141  and  _143
REMARK   43  A    between atoms: _143  and  _144
REMARK   44  A    between atoms: _143  and  _146
REMARK   45  A    between atoms: _146  and  _147
REMARK   46  A    between atoms: _147  and  _148
REMARK   47  A    between atoms: _151  and  _153
REMARK   48  A    between atoms: _153  and  _154
REMARK   49  A    between atoms: _153  and  _156
REMARK   50  A    between atoms: _156  and  _157
REMARK   51  A    between atoms: _162  and  _164
REMARK   52  A    between atoms: _164  and  _165
REMARK   53  A    between atoms: _164  and  _167
REMARK   54  A    between atoms: _167  and  _168
REMARK   55  A    between atoms: _168  and  _169
REMARK   56  A    between atoms: _172  and  _174
REMARK   57  A    between atoms: _174  and  _175
REMARK   58  A    between atoms: _174  and  _177
REMARK   59  A    between atoms: _177  and  _178
REMARK   60  A    between atoms: _181  and  _183
REMARK   61  A    between atoms: _183  and  _184
REMARK   62  A    between atoms: _183  and  _186
REMARK   63  A    between atoms: _186  and  _187
REMARK   64  A    between atoms: _188  and  ZN_420
REMARK   65  A    between atoms: _192  and  _194
REMARK   66  A    between atoms: _194  and  _195
REMARK   67  A    between atoms: _194  and  _197
REMARK   68  A    between atoms: _197  and  _198
REMARK   69  A    between atoms: _201  and  _203
REMARK   70  A    between atoms: _203  and  _204
REMARK   71  A    between atoms: _203  and  _206
REMARK   72  A    between atoms: _209  and  _211
REMARK   73  A    between atoms: _211  and  _212
REMARK   74  A    between atoms: _211  and  _214
REMARK   75  A    between atoms: _214  and  _215
REMARK   76  A    between atoms: _220  and  _222
REMARK   77  A    between atoms: _222  and  _223
REMARK   78  A    between atoms: _222  and  _225
REMARK   79  A    between atoms: _225  and  _226
REMARK   80  A    between atoms: _232  and  _234
REMARK   81  A    between atoms: _234  and  _235
REMARK   82  A    between atoms: _237  and  _239
REMARK   83  A    between atoms: _239  and  _240
REMARK   84  A    between atoms: _239  and  _242
REMARK   85  A    between atoms: _245  and  _247
REMARK   86  A    between atoms: _247  and  _248
REMARK   87  A    between atoms: _247  and  _250
REMARK   88  A    between atoms: _250  and  _251
REMARK   89  A    between atoms: _251  and  _252
REMARK   90  A    between atoms: _257  and  _259
REMARK   91  A    between atoms: _259  and  _260
REMARK   92  A    between atoms: _259  and  _262
REMARK   93  A    between atoms: _262  and  _263
REMARK   94  A    between atoms: _266  and  _268
REMARK   95  A    between atoms: _268  and  _269
REMARK   96  A    between atoms: _272  and  _274
REMARK   97  A    between atoms: _274  and  _275
REMARK   98  A    between atoms: _274  and  _277
REMARK   99  A    between atoms: _280  and  _282
REMARK  100  A    between atoms: _282  and  _283
REMARK  101  A    between atoms: _282  and  _285
REMARK  102  A    between atoms: _285  and  _286
REMARK  103  A    between atoms: _289  and  _291
REMARK  104  A    between atoms: _291  and  _292
REMARK  105  A    between atoms: _294  and  _296
REMARK  106  A    between atoms: _296  and  _297
REMARK  107  A    between atoms: _296  and  _299
REMARK  108  A    between atoms: _299  and  _300
REMARK  109  A    between atoms: _302  and  _304
REMARK  110  A    between atoms: _304  and  _305
REMARK  111  A    between atoms: _304  and  _307
REMARK  112  A    between atoms: _307  and  _308
REMARK  113  A    between atoms: _311  and  _313
REMARK  114  A    between atoms: _313  and  _314
REMARK  115  A    between atoms: _313  and  _316
REMARK  116  A    between atoms: _316  and  _317
REMARK  117  A    between atoms: _320  and  _322
REMARK  118  A    between atoms: _322  and  _323
REMARK  119  A    between atoms: _322  and  _325
REMARK  120  A    between atoms: _325  and  _326
REMARK  121  A    between atoms: _330  and  _331
REMARK  122  A    between atoms: _337  and  _338
REMARK  123  A    between atoms: _343  and  _345
REMARK  124  A    between atoms: _345  and  _346
REMARK  125  A    between atoms: _345  and  _348
REMARK  126  A    between atoms: _348  and  _349
REMARK  127  A    between atoms: _352  and  _354
REMARK  128  A    between atoms: _354  and  _355
REMARK  129  A    between atoms: _354  and  _357
REMARK  130  A    between atoms: _357  and  _358
REMARK  131  A    between atoms: _361  and  _363
REMARK  132  A    between atoms: _363  and  _364
REMARK  133  A    between atoms: _363  and  _366
REMARK  134  A    between atoms: _368  and  _370
REMARK  135  A    between atoms: _370  and  _371
REMARK  136  A    between atoms: _370  and  _373
REMARK  137  A    between atoms: _376  and  _378
REMARK  138  A    between atoms: _378  and  _379
REMARK  139  A    between atoms: _378  and  _381
REMARK  140  A    between atoms: _381  and  _382
REMARK  141  A    between atoms: _392  and  _394
REMARK  142  A    between atoms: _394  and  _395
REMARK  143  A    between atoms: _394  and  _397
REMARK  144  A    between atoms: _397  and  _398
REMARK  145  A    between atoms: _403  and  _405
REMARK  146  A    between atoms: _405  and  _406
REMARK  147  A    between atoms: _405  and  _408
REMARK  148  A    between atoms: _408  and  _409
REMARK  149  A    between atoms: _409  and  _410
REMARK  150  A    between atoms: _410  and  _411
REMARK                            x       y       z     vdW  Elec       q    Type
REMARK                         _______ _______ _______ _____ _____    ______ ____
ROOT
ATOM      1  C   CYS A   1      -5.853   7.534  23.943  0.00  0.00    +0.239 C 
ATOM      2  N   VAL A   2      -5.995   6.230  24.190  0.00  0.00    -0.298 N 
ATOM      3  H   VAL A   2      -5.204   5.698  24.606  0.00  0.00    +0.150 HD
ATOM      4  O   CYS A   1      -6.793   8.240  23.630  0.00  0.00    -0.274 OA
ENDROOT
BRANCH   1   5
ATOM      5  CA  CYS A   1      -4.472   8.153  24.060  0.00  0.00    +0.156 C 
BRANCH   5   6
ATOM      6  N   CYS A   1      -3.402   7.179  24.240  0.00  0.00    -0.237 NA
ATOM      7  H   CYS A   1      -3.322   6.393  23.564  0.00  0.00    +0.142 HD
ENDBRANCH   5   6
BRANCH   5   8
ATOM      8  CB  CYS A   1      -4.205   8.999  22.804  0.00  0.00    +0.095 C 
ATOM      9  SG  CYS A   1      -4.160   8.037  21.265  0.00  0.00    -0.080 S 
ENDBRANCH   5   8
ENDBRANCH   1   5
BRANCH   2  10
ATOM     10  CA  VAL A   2      -7.251   5.538  23.883  0.00  0.00    +0.137 C 
BRANCH  10  11
ATOM     11  CB  VAL A   2      -6.992   4.280  22.996  0.00  0.00    +0.026 C 
ATOM     12  CG2 VAL A   2      -8.308   3.592  22.646  0.00  0.00    +0.002 C 
ATOM     13  CG1 VAL A   2      -6.227   4.649  21.710  0.00  0.00    +0.002 C 
ENDBRANCH  10  11
BRANCH  10  14
ATOM     14  C   VAL A   2      -8.002   5.073  25.108  0.00  0.00    +0.227 C 
ATOM     15  O   VAL A   2      -7.444   4.381  25.957  0.00  0.00    -0.286 OA
ENDBRANCH  10  14
ENDBRANCH   2  10
TORSDOF 6
REMARK  Name = ../refined-set-2016/3mzc/3mzc_pocket.pdb
REMARK  150 active torsions:
REMARK  status: ('A' for Active; 'I' for Inactive)
REMARK    1  A    between atoms: _1  and  _3
REMARK    2  A    between atoms: _3  and  _4
REMARK    3  A    between atoms: _3  and  _6
REMARK    4  A    between atoms: _6  and  _7
REMARK    5  A    between atoms: _17  and  _19
REMARK    6  A    between atoms: _19  and  _20
REMARK    7  A    between atoms: _19  and  _22
REMARK    8  A    between atoms: _22  and  _23
REMARK    9  A    between atoms: _28  and  _29
REMARK   10  A    between atoms: _31  and  _33
REMARK   11  A    between atoms: _33  and  _34
REMARK   12  A    between atoms: _33  and  _36
REMARK   13  A    between atoms: _36  and  _37
REMARK   14  A    between atoms: _40  and  _41
REMARK   15  A    between atoms: _46  and  _48
REMARK   16  A    between atoms: _48  and  _49
REMARK   17  A    between atoms: _48  and  _51
REMARK   18  A    between atoms: _51  and  _52
REMARK   19  A    between atoms: _57  and  _59
REMARK   20  A    between atoms: _59  and  _60
REMARK   21  A    between atoms: _63  and  _65
REMARK   22  A    between atoms: _65  and  _66
REMARK   23  A    between atoms: _65  and  _68
REMARK   24  A    between atoms: _68  and  _69
REMARK   25  A    between atoms: _74  and  _76
REMARK   26  A    between atoms: _76  and  _77
REMARK   27  A    between atoms: _76  and  _79
REMARK   28  A    between atoms: _79  and  _80
REMARK   29  A    between atoms: _83  and  _85
REMARK   30  A    between atoms: _85  and  _86
REMARK   31  A    between atoms: _85  and  _88
REMARK   32  A    between atoms: _88  and  _89
REMARK   33  A    between atoms: _89  and  _90
REMARK   34  A    between atoms: _95  and  _97
REMARK   35  A    between atoms: _97  and  _98
REMARK   36  A    between atoms: _97  and  _100
REMARK   37  A    between atoms: _100  and  _101
REMARK   38  A    between atoms: _107  and  _109
REMARK   39  A    between atoms: _120  and  _123
REMARK   40  A    between atoms: _123  and  _124
REMARK   41  A    between atoms: _132  and  _133
REMARK   42  A    between atoms: _141  and  _143
REMARK   43  A    between atoms: _143  and  _144
REMARK   44  A    between atoms: _143  and  _146
REMARK   45  A    between atoms: _146  and  _147
REMARK   46  A    between atoms: _147  and  _148
REMARK   47  A    between atoms: _151  and  _153
REMARK   48  A    between atoms: _153  and  _154
REMARK   49  A    between atoms: _153  and  _156
REMARK   50  A    between atoms: _156  and  _157
REMARK   51  A    between atoms: _162  and  _164
REMARK   52  A    between atoms: _164  and  _165
REMARK   53  A    between atoms: _164  and  _167
REMARK   54  A    between atoms: _167  and  _168
REMARK   55  A    between atoms: _168  and  _169
REMARK   56  A    between atoms: _172  and  _174
REMARK   57  A    between atoms: _174  and  _175
REMARK   58  A    between atoms: _174  and  _177
REMARK   59  A    between atoms: _177  and  _178
REMARK   60  A    between atoms: _181  and  _183
REMARK   61  A    between atoms: _183  and  _184
REMARK   62  A    between atoms: _183  and  _186
REMARK   63  A    between atoms: _186  and  _187
REMARK   64  A    between atoms: _188  and  ZN_420
REMARK   65  A    between atoms: _192  and  _194
REMARK   66  A    between atoms: _194  and  _195
REMARK   67  A    between atoms: _194  and  _197
REMARK   68  A    between atoms: _197  and  _198
REMARK   69  A    between atoms: _201  and  _203
REMARK   70  A    between atoms: _203  and  _204
REMARK   71  A    between atoms: _203  and  _206
REMARK   72  A    between atoms: _209  and  _211
REMARK   73  A    between atoms: _211  and  _212
REMARK   74  A    between atoms: _211  and  _214
REMARK   75  A    between atoms: _214  and  _215
REMARK   76  A    between atoms: _220  and  _222
REMARK   77  A    between atoms: _222  and  _223
REMARK   78  A    between atoms: _222  and  _225
REMARK   79  A    between atoms: _225  and  _226
REMARK   80  A    between atoms: _232  and  _234
REMARK   81  A    between atoms: _234  and  _235
REMARK   82  A    between atoms: _237  and  _239
REMARK   83  A    between atoms: _239  and  _240
REMARK   84  A    between atoms: _239  and  _242
REMARK   85  A    between atoms: _245  and  _247
REMARK   86  A    between atoms: _247  and  _248
REMARK   87  A    between atoms: _247  and  _250
REMARK   88  A    between atoms: _250  and  _251
REMARK   89  A    between atoms: _251  and  _252
REMARK   90  A    between atoms: _257  and  _259
REMARK   91  A    between atoms: _259  and  _260
REMARK   92  A    between atoms: _259  and  _262
REMARK   93  A    between atoms: _262  and  _263
REMARK   94  A    between atoms: _266  and  _268
REMARK   95  A    between atoms: _268  and  _269
REMARK   96  A    between atoms: _272  and  _274
REMARK   97  A    between atoms: _274  and  _275
REMARK   98  A    between atoms: _274  and  _277
REMARK   99  A    between atoms: _280  and  _282
REMARK  100  A    between atoms: _282  and  _283
REMARK  101  A    between atoms: _282  and  _285
REMARK  102  A    between atoms: _285  and  _286
REMARK  103  A    between atoms: _289  and  _291
REMARK  104  A    between atoms: _291  and  _292
REMARK  105  A    between atoms: _294  and  _296
REMARK  106  A    between atoms: _296  and  _297
REMARK  107  A    between atoms: _296  and  _299
REMARK  108  A    between atoms: _299  and  _300
REMARK  109  A    between atoms: _302  and  _304
REMARK  110  A    between atoms: _304  and  _305
REMARK  111  A    between atoms: _304  and  _307
REMARK  112  A    between atoms: _307  and  _308
REMARK  113  A    between atoms: _311  and  _313
REMARK  114  A    between atoms: _313  and  _314
REMARK  115  A    between atoms: _313  and  _316
REMARK  116  A    between atoms: _316  and  _317
REMARK  117  A    between atoms: _320  and  _322
REMARK  118  A    between atoms: _322  and  _323
REMARK  119  A    between atoms: _322  and  _325
REMARK  120  A    between atoms: _325  and  _326
REMARK  121  A    between atoms: _330  and  _331
REMARK  122  A    between atoms: _337  and  _338
REMARK  123  A    between atoms: _343  and  _345
REMARK  124  A    between atoms: _345  and  _346
REMARK  125  A    between atoms: _345  and  _348
REMARK  126  A    between atoms: _348  and  _349
REMARK  127  A    between atoms: _352  and  _354
REMARK  128  A    between atoms: _354  and  _355
REMARK  129  A    between atoms: _354  and  _357
REMARK  130  A    between atoms: _357  and  _358
REMARK  131  A    between atoms: _361  and  _363
REMARK  132  A    between atoms: _363  and  _364
REMARK  133  A    between atoms: _363  and  _366
REMARK  134  A    between atoms: _368  and  _370
REMARK  135  A    between atoms: _370  and  _371
REMARK  136  A    between atoms: _370  and  _373
REMARK  137  A    between atoms: _376  and  _378
REMARK  138  A    between atoms: _378  and  _379
REMARK  139  A    between atoms: _378  and  _381
REMARK  140  A    between atoms: _381  and  _382
REMARK  141  A    between atoms: _392  and  _394
REMARK  142  A    between atoms: _394  and  _395
REMARK  143  A    between atoms: _394  and  _397
REMARK  144  A    between atoms: _397  and  _398
REMARK  145  A    between atoms: _403  and  _405
REMARK  146  A    between atoms: _405  and  _406
REMARK  147  A    between atoms: _405  and  _408
REMARK  148  A    between atoms: _408  and  _409
REMARK  149  A    between atoms: _409  and  _410
REMARK  150  A    between atoms: _410  and  _411
REMARK                            x       y       z     vdW  Elec       q    Type
REMARK                         _______ _______ _______ _____ _____    ______ ____
ROOT
ATOM      1  CG  TRP A   1      -8.704   0.080  24.115  0.00  0.00    -0.002 A 
ATOM      2  CD1 TRP A   1      -7.479   0.662  24.286  0.00  0.00    +0.068 A 
ATOM      3  NE1 TRP A   1      -6.793   0.645  23.102  0.00  0.00    -0.352 N 
ATOM      4  HE1 TRP A   1      -5.842   1.038  22.955  0.00  0.00    +0.166 HD
ATOM      5  CE2 TRP A   1      -7.553   0.029  22.138  0.00  0.00    +0.056 A 
ATOM      6  CZ2 TRP A   1      -7.291  -0.217  20.784  0.00  0.00    +0.017 A 
ATOM      7  CH2 TRP A   1      -8.272  -0.847  20.057  0.00  0.00    +0.001 A 
ATOM      8  CZ3 TRP A   1      -9.487  -1.222  20.644  0.00  0.00    +0.000 A 
ATOM      9  CE3 TRP A   1      -9.741  -0.977  21.970  0.00  0.00    +0.001 A 
ATOM     10  CD2 TRP A   1      -8.764  -0.340  22.745  0.00  0.00    +0.013 A 
ENDROOT
BRANCH   1  11
ATOM     11  CB  TRP A   1      -9.803  -0.045  25.134  0.00  0.00    +0.053 C 
BRANCH  11  12
ATOM     12  CA  TRP A   1     -10.833   1.092  24.937  0.00  0.00    +0.137 C 
BRANCH  12  13
ATOM     13  N   TRP A   1     -10.395   2.297  25.626  0.00  0.00    -0.239 NA
ATOM     14  H   TRP A   1      -9.787   2.204  26.465  0.00  0.00    +0.142 HD
ENDBRANCH  12  13
BRANCH  12  15
ATOM     15  C   TRP A   1     -12.176   0.656  25.449  0.00  0.00    +0.224 C 
ATOM     16  O   TRP A   1     -12.398   0.598  26.651  0.00  0.00    -0.287 OA
ENDBRANCH  12  15
ENDBRANCH  11  12
ENDBRANCH   1  11
TORSDOF 4
REMARK  Name = ../refined-set-2016/3mzc/3mzc_pocket.pdb
REMARK  150 active torsions:
REMARK  status: ('A' for Active; 'I' for Inactive)
REMARK    1  A    between atoms: _1  and  _3
REMARK    2  A    between atoms: _3  and  _4
REMARK    3  A    between atoms: _3  and  _6
REMARK    4  A    between atoms: _6  and  _7
REMARK    5  A    between atoms: _17  and  _19
REMARK    6  A    between atoms: _19  and  _20
REMARK    7  A    between atoms: _19  and  _22
REMARK    8  A    between atoms: _22  and  _23
REMARK    9  A    between atoms: _28  and  _29
REMARK   10  A    between atoms: _31  and  _33
REMARK   11  A    between atoms: _33  and  _34
REMARK   12  A    between atoms: _33  and  _36
REMARK   13  A    between atoms: _36  and  _37
REMARK   14  A    between atoms: _40  and  _41
REMARK   15  A    between atoms: _46  and  _48
REMARK   16  A    between atoms: _48  and  _49
REMARK   17  A    between atoms: _48  and  _51
REMARK   18  A    between atoms: _51  and  _52
REMARK   19  A    between atoms: _57  and  _59
REMARK   20  A    between atoms: _59  and  _60
REMARK   21  A    between atoms: _63  and  _65
REMARK   22  A    between atoms: _65  and  _66
REMARK   23  A    between atoms: _65  and  _68
REMARK   24  A    between atoms: _68  and  _69
REMARK   25  A    between atoms: _74  and  _76
REMARK   26  A    between atoms: _76  and  _77
REMARK   27  A    between atoms: _76  and  _79
REMARK   28  A    between atoms: _79  and  _80
REMARK   29  A    between atoms: _83  and  _85
REMARK   30  A    between atoms: _85  and  _86
REMARK   31  A    between atoms: _85  and  _88
REMARK   32  A    between atoms: _88  and  _89
REMARK   33  A    between atoms: _89  and  _90
REMARK   34  A    between atoms: _95  and  _97
REMARK   35  A    between atoms: _97  and  _98
REMARK   36  A    between atoms: _97  and  _100
REMARK   37  A    between atoms: _100  and  _101
REMARK   38  A    between atoms: _107  and  _109
REMARK   39  A    between atoms: _120  and  _123
REMARK   40  A    between atoms: _123  and  _124
REMARK   41  A    between atoms: _132  and  _133
REMARK   42  A    between atoms: _141  and  _143
REMARK   43  A    between atoms: _143  and  _144
REMARK   44  A    between atoms: _143  and  _146
REMARK   45  A    between atoms: _146  and  _147
REMARK   46  A    between atoms: _147  and  _148
REMARK   47  A    between atoms: _151  and  _153
REMARK   48  A    between atoms: _153  and  _154
REMARK   49  A    between atoms: _153  and  _156
REMARK   50  A    between atoms: _156  and  _157
REMARK   51  A    between atoms: _162  and  _164
REMARK   52  A    between atoms: _164  and  _165
REMARK   53  A    between atoms: _164  and  _167
REMARK   54  A    between atoms: _167  and  _168
REMARK   55  A    between atoms: _168  and  _169
REMARK   56  A    between atoms: _172  and  _174
REMARK   57  A    between atoms: _174  and  _175
REMARK   58  A    between atoms: _174  and  _177
REMARK   59  A    between atoms: _177  and  _178
REMARK   60  A    between atoms: _181  and  _183
REMARK   61  A    between atoms: _183  and  _184
REMARK   62  A    between atoms: _183  and  _186
REMARK   63  A    between atoms: _186  and  _187
REMARK   64  A    between atoms: _188  and  ZN_420
REMARK   65  A    between atoms: _192  and  _194
REMARK   66  A    between atoms: _194  and  _195
REMARK   67  A    between atoms: _194  and  _197
REMARK   68  A    between atoms: _197  and  _198
REMARK   69  A    between atoms: _201  and  _203
REMARK   70  A    between atoms: _203  and  _204
REMARK   71  A    between atoms: _203  and  _206
REMARK   72  A    between atoms: _209  and  _211
REMARK   73  A    between atoms: _211  and  _212
REMARK   74  A    between atoms: _211  and  _214
REMARK   75  A    between atoms: _214  and  _215
REMARK   76  A    between atoms: _220  and  _222
REMARK   77  A    between atoms: _222  and  _223
REMARK   78  A    between atoms: _222  and  _225
REMARK   79  A    between atoms: _225  and  _226
REMARK   80  A    between atoms: _232  and  _234
REMARK   81  A    between atoms: _234  and  _235
REMARK   82  A    between atoms: _237  and  _239
REMARK   83  A    between atoms: _239  and  _240
REMARK   84  A    between atoms: _239  and  _242
REMARK   85  A    between atoms: _245  and  _247
REMARK   86  A    between atoms: _247  and  _248
REMARK   87  A    between atoms: _247  and  _250
REMARK   88  A    between atoms: _250  and  _251
REMARK   89  A    between atoms: _251  and  _252
REMARK   90  A    between atoms: _257  and  _259
REMARK   91  A    between atoms: _259  and  _260
REMARK   92  A    between atoms: _259  and  _262
REMARK   93  A    between atoms: _262  and  _263
REMARK   94  A    between atoms: _266  and  _268
REMARK   95  A    between atoms: _268  and  _269
REMARK   96  A    between atoms: _272  and  _274
REMARK   97  A    between atoms: _274  and  _275
REMARK   98  A    between atoms: _274  and  _277
REMARK   99  A    between atoms: _280  and  _282
REMARK  100  A    between atoms: _282  and  _283
REMARK  101  A    between atoms: _282  and  _285
REMARK  102  A    between atoms: _285  and  _286
REMARK  103  A    between atoms: _289  and  _291
REMARK  104  A    between atoms: _291  and  _292
REMARK  105  A    between atoms: _294  and  _296
REMARK  106  A    between atoms: _296  and  _297
REMARK  107  A    between atoms: _296  and  _299
REMARK  108  A    between atoms: _299  and  _300
REMARK  109  A    between atoms: _302  and  _304
REMARK  110  A    between atoms: _304  and  _305
REMARK  111  A    between atoms: _304  and  _307
REMARK  112  A    between atoms: _307  and  _308
REMARK  113  A    between atoms: _311  and  _313
REMARK  114  A    between atoms: _313  and  _314
REMARK  115  A    between atoms: _313  and  _316
REMARK  116  A    between atoms: _316  and  _317
REMARK  117  A    between atoms: _320  and  _322
REMARK  118  A    between atoms: _322  and  _323
REMARK  119  A    between atoms: _322  and  _325
REMARK  120  A    between atoms: _325  and  _326
REMARK  121  A    between atoms: _330  and  _331
REMARK  122  A    between atoms: _337  and  _338
REMARK  123  A    between atoms: _343  and  _345
REMARK  124  A    between atoms: _345  and  _346
REMARK  125  A    between atoms: _345  and  _348
REMARK  126  A    between atoms: _348  and  _349
REMARK  127  A    between atoms: _352  and  _354
REMARK  128  A    between atoms: _354  and  _355
REMARK  129  A    between atoms: _354  and  _357
REMARK  130  A    between atoms: _357  and  _358
REMARK  131  A    between atoms: _361  and  _363
REMARK  132  A    between atoms: _363  and  _364
REMARK  133  A    between atoms: _363  and  _366
REMARK  134  A    between atoms: _368  and  _370
REMARK  135  A    between atoms: _370  and  _371
REMARK  136  A    between atoms: _370  and  _373
REMARK  137  A    between atoms: _376  and  _378
REMARK  138  A    between atoms: _378  and  _379
REMARK  139  A    between atoms: _378  and  _381
REMARK  140  A    between atoms: _381  and  _382
REMARK  141  A    between atoms: _392  and  _394
REMARK  142  A    between atoms: _394  and  _395
REMARK  143  A    between atoms: _394  and  _397
REMARK  144  A    between atoms: _397  and  _398
REMARK  145  A    between atoms: _403  and  _405
REMARK  146  A    between atoms: _405  and  _406
REMARK  147  A    between atoms: _405  and  _408
REMARK  148  A    between atoms: _408  and  _409
REMARK  149  A    between atoms: _409  and  _410
REMARK  150  A    between atoms: _410  and  _411
REMARK                            x       y       z     vdW  Elec       q    Type
REMARK                         _______ _______ _______ _____ _____    ______ ____
ROOT
ATOM      1  CB  ASN A   1      -1.988  -7.174  10.356  0.00  0.00    +0.110 C 
ENDROOT
BRANCH   1   2
ATOM      2  CG  ASN A   1      -3.515  -7.294  10.196  0.00  0.00    +0.221 C 
ATOM      3  OD1 ASN A   1      -4.148  -8.197  10.751  0.00  0.00    -0.275 OA
ATOM      4  ND2 ASN A   1      -4.116  -6.354   9.460  0.00  0.00    -0.329 N 
ATOM      5 HD21 ASN A   1      -5.149  -6.369   9.341  0.00  0.00    +0.145 HD
ATOM      6 HD22 ASN A   1      -3.551  -5.608   9.007  0.00  0.00    +0.145 HD
ENDBRANCH   1   2
BRANCH   1   7
ATOM      7  CA  ASN A   1      -1.440  -8.047  11.484  0.00  0.00    +0.142 C 
BRANCH   7   8
ATOM      8  N   ASN A   1      -1.759  -9.464  11.239  0.00  0.00    -0.239 NA
ATOM      9  H   ASN A   1      -2.676  -9.708  10.813  0.00  0.00    +0.142 HD
ENDBRANCH   7   8
BRANCH   7  10
ATOM     10  C   ASN A   1      -1.986  -7.604  12.851  0.00  0.00    +0.225 C 
ATOM     11  O   ASN A   1      -2.644  -6.568  12.977  0.00  0.00    -0.287 OA
ENDBRANCH   7  10
ENDBRANCH   1   7
TORSDOF 4
REMARK  Name = ../refined-set-2016/3mzc/3mzc_pocket.pdb
REMARK  150 active torsions:
REMARK  status: ('A' for Active; 'I' for Inactive)
REMARK    1  A    between atoms: _1  and  _3
REMARK    2  A    between atoms: _3  and  _4
REMARK    3  A    between atoms: _3  and  _6
REMARK    4  A    between atoms: _6  and  _7
REMARK    5  A    between atoms: _17  and  _19
REMARK    6  A    between atoms: _19  and  _20
REMARK    7  A    between atoms: _19  and  _22
REMARK    8  A    between atoms: _22  and  _23
REMARK    9  A    between atoms: _28  and  _29
REMARK   10  A    between atoms: _31  and  _33
REMARK   11  A    between atoms: _33  and  _34
REMARK   12  A    between atoms: _33  and  _36
REMARK   13  A    between atoms: _36  and  _37
REMARK   14  A    between atoms: _40  and  _41
REMARK   15  A    between atoms: _46  and  _48
REMARK   16  A    between atoms: _48  and  _49
REMARK   17  A    between atoms: _48  and  _51
REMARK   18  A    between atoms: _51  and  _52
REMARK   19  A    between atoms: _57  and  _59
REMARK   20  A    between atoms: _59  and  _60
REMARK   21  A    between atoms: _63  and  _65
REMARK   22  A    between atoms: _65  and  _66
REMARK   23  A    between atoms: _65  and  _68
REMARK   24  A    between atoms: _68  and  _69
REMARK   25  A    between atoms: _74  and  _76
REMARK   26  A    between atoms: _76  and  _77
REMARK   27  A    between atoms: _76  and  _79
REMARK   28  A    between atoms: _79  and  _80
REMARK   29  A    between atoms: _83  and  _85
REMARK   30  A    between atoms: _85  and  _86
REMARK   31  A    between atoms: _85  and  _88
REMARK   32  A    between atoms: _88  and  _89
REMARK   33  A    between atoms: _89  and  _90
REMARK   34  A    between atoms: _95  and  _97
REMARK   35  A    between atoms: _97  and  _98
REMARK   36  A    between atoms: _97  and  _100
REMARK   37  A    between atoms: _100  and  _101
REMARK   38  A    between atoms: _107  and  _109
REMARK   39  A    between atoms: _120  and  _123
REMARK   40  A    between atoms: _123  and  _124
REMARK   41  A    between atoms: _132  and  _133
REMARK   42  A    between atoms: _141  and  _143
REMARK   43  A    between atoms: _143  and  _144
REMARK   44  A    between atoms: _143  and  _146
REMARK   45  A    between atoms: _146  and  _147
REMARK   46  A    between atoms: _147  and  _148
REMARK   47  A    between atoms: _151  and  _153
REMARK   48  A    between atoms: _153  and  _154
REMARK   49  A    between atoms: _153  and  _156
REMARK   50  A    between atoms: _156  and  _157
REMARK   51  A    between atoms: _162  and  _164
REMARK   52  A    between atoms: _164  and  _165
REMARK   53  A    between atoms: _164  and  _167
REMARK   54  A    between atoms: _167  and  _168
REMARK   55  A    between atoms: _168  and  _169
REMARK   56  A    between atoms: _172  and  _174
REMARK   57  A    between atoms: _174  and  _175
REMARK   58  A    between atoms: _174  and  _177
REMARK   59  A    between atoms: _177  and  _178
REMARK   60  A    between atoms: _181  and  _183
REMARK   61  A    between atoms: _183  and  _184
REMARK   62  A    between atoms: _183  and  _186
REMARK   63  A    between atoms: _186  and  _187
REMARK   64  A    between atoms: _188  and  ZN_420
REMARK   65  A    between atoms: _192  and  _194
REMARK   66  A    between atoms: _194  and  _195
REMARK   67  A    between atoms: _194  and  _197
REMARK   68  A    between atoms: _197  and  _198
REMARK   69  A    between atoms: _201  and  _203
REMARK   70  A    between atoms: _203  and  _204
REMARK   71  A    between atoms: _203  and  _206
REMARK   72  A    between atoms: _209  and  _211
REMARK   73  A    between atoms: _211  and  _212
REMARK   74  A    between atoms: _211  and  _214
REMARK   75  A    between atoms: _214  and  _215
REMARK   76  A    between atoms: _220  and  _222
REMARK   77  A    between atoms: _222  and  _223
REMARK   78  A    between atoms: _222  and  _225
REMARK   79  A    between atoms: _225  and  _226
REMARK   80  A    between atoms: _232  and  _234
REMARK   81  A    between atoms: _234  and  _235
REMARK   82  A    between atoms: _237  and  _239
REMARK   83  A    between atoms: _239  and  _240
REMARK   84  A    between atoms: _239  and  _242
REMARK   85  A    between atoms: _245  and  _247
REMARK   86  A    between atoms: _247  and  _248
REMARK   87  A    between atoms: _247  and  _250
REMARK   88  A    between atoms: _250  and  _251
REMARK   89  A    between atoms: _251  and  _252
REMARK   90  A    between atoms: _257  and  _259
REMARK   91  A    between atoms: _259  and  _260
REMARK   92  A    between atoms: _259  and  _262
REMARK   93  A    between atoms: _262  and  _263
REMARK   94  A    between atoms: _266  and  _268
REMARK   95  A    between atoms: _268  and  _269
REMARK   96  A    between atoms: _272  and  _274
REMARK   97  A    between atoms: _274  and  _275
REMARK   98  A    between atoms: _274  and  _277
REMARK   99  A    between atoms: _280  and  _282
REMARK  100  A    between atoms: _282  and  _283
REMARK  101  A    between atoms: _282  and  _285
REMARK  102  A    between atoms: _285  and  _286
REMARK  103  A    between atoms: _289  and  _291
REMARK  104  A    between atoms: _291  and  _292
REMARK  105  A    between atoms: _294  and  _296
REMARK  106  A    between atoms: _296  and  _297
REMARK  107  A    between atoms: _296  and  _299
REMARK  108  A    between atoms: _299  and  _300
REMARK  109  A    between atoms: _302  and  _304
REMARK  110  A    between atoms: _304  and  _305
REMARK  111  A    between atoms: _304  and  _307
REMARK  112  A    between atoms: _307  and  _308
REMARK  113  A    between atoms: _311  and  _313
REMARK  114  A    between atoms: _313  and  _314
REMARK  115  A    between atoms: _313  and  _316
REMARK  116  A    between atoms: _316  and  _317
REMARK  117  A    between atoms: _320  and  _322
REMARK  118  A    between atoms: _322  and  _323
REMARK  119  A    between atoms: _322  and  _325
REMARK  120  A    between atoms: _325  and  _326
REMARK  121  A    between atoms: _330  and  _331
REMARK  122  A    between atoms: _337  and  _338
REMARK  123  A    between atoms: _343  and  _345
REMARK  124  A    between atoms: _345  and  _346
REMARK  125  A    between atoms: _345  and  _348
REMARK  126  A    between atoms: _348  and  _349
REMARK  127  A    between atoms: _352  and  _354
REMARK  128  A    between atoms: _354  and  _355
REMARK  129  A    between atoms: _354  and  _357
REMARK  130  A    between atoms: _357  and  _358
REMARK  131  A    between atoms: _361  and  _363
REMARK  132  A    between atoms: _363  and  _364
REMARK  133  A    between atoms: _363  and  _366
REMARK  134  A    between atoms: _368  and  _370
REMARK  135  A    between atoms: _370  and  _371
REMARK  136  A    between atoms: _370  and  _373
REMARK  137  A    between atoms: _376  and  _378
REMARK  138  A    between atoms: _378  and  _379
REMARK  139  A    between atoms: _378  and  _381
REMARK  140  A    between atoms: _381  and  _382
REMARK  141  A    between atoms: _392  and  _394
REMARK  142  A    between atoms: _394  and  _395
REMARK  143  A    between atoms: _394  and  _397
REMARK  144  A    between atoms: _397  and  _398
REMARK  145  A    between atoms: _403  and  _405
REMARK  146  A    between atoms: _405  and  _406
REMARK  147  A    between atoms: _405  and  _408
REMARK  148  A    between atoms: _408  and  _409
REMARK  149  A    between atoms: _409  and  _410
REMARK  150  A    between atoms: _410  and  _411
REMARK                            x       y       z     vdW  Elec       q    Type
REMARK                         _______ _______ _______ _____ _____    ______ ____
ROOT
ATOM      1  NE  ARG A   1       2.294  -3.799  21.135  0.00  0.00    -0.265 N 
ATOM      2  CZ  ARG A   1       2.490  -2.803  22.003  0.00  0.00    +0.342 C 
ATOM      3  NH2 ARG A   1       3.714  -2.600  22.502  0.00  0.00    -0.292 N 
ATOM      4 HH21 ARG A   1       3.878  -1.827  23.179  0.00  0.00    +0.255 HD
ATOM      5 HH22 ARG A   1       4.502  -3.215  22.213  0.00  0.00    +0.255 HD
ATOM      6  NH1 ARG A   1       1.472  -2.024  22.384  0.00  0.00    -0.292 N 
ATOM      7 HH11 ARG A   1       1.634  -1.251  23.060  0.00  0.00    +0.255 HD
ATOM      8 HH12 ARG A   1       0.519  -2.191  22.004  0.00  0.00    +0.255 HD
ATOM      9  HE  ARG A   1       3.105  -4.413  20.920  0.00  0.00    +0.259 HD
ENDROOT
BRANCH   1  10
ATOM     10  CD  ARG A   1       1.026  -4.096  20.461  0.00  0.00    +0.174 C 
BRANCH  10  11
ATOM     11  CG  ARG A   1       1.081  -5.478  19.828  0.00  0.00    +0.045 C 
BRANCH  11  12
ATOM     12  CB  ARG A   1       0.025  -5.708  18.763  0.00  0.00    +0.029 C 
BRANCH  12  13
ATOM     13  CA  ARG A   1      -0.092  -7.162  18.278  0.00  0.00    +0.133 C 
BRANCH  13  14
ATOM     14  N   ARG A   1      -1.063  -7.246  17.196  0.00  0.00    -0.239 NA
ATOM     15  H   ARG A   1      -1.886  -6.611  17.212  0.00  0.00    +0.142 HD
ENDBRANCH  13  14
BRANCH  13  16
ATOM     16  C   ARG A   1      -0.598  -8.046  19.416  0.00  0.00    +0.224 C 
ATOM     17  O   ARG A   1      -1.776  -8.019  19.730  0.00  0.00    -0.287 OA
ENDBRANCH  13  16
ENDBRANCH  12  13
ENDBRANCH  11  12
ENDBRANCH  10  11
ENDBRANCH   1  10
TORSDOF 6
REMARK  Name = ../refined-set-2016/3mzc/3mzc_pocket.pdb
REMARK  150 active torsions:
REMARK  status: ('A' for Active; 'I' for Inactive)
REMARK    1  A    between atoms: _1  and  _3
REMARK    2  A    between atoms: _3  and  _4
REMARK    3  A    between atoms: _3  and  _6
REMARK    4  A    between atoms: _6  and  _7
REMARK    5  A    between atoms: _17  and  _19
REMARK    6  A    between atoms: _19  and  _20
REMARK    7  A    between atoms: _19  and  _22
REMARK    8  A    between atoms: _22  and  _23
REMARK    9  A    between atoms: _28  and  _29
REMARK   10  A    between atoms: _31  and  _33
REMARK   11  A    between atoms: _33  and  _34
REMARK   12  A    between atoms: _33  and  _36
REMARK   13  A    between atoms: _36  and  _37
REMARK   14  A    between atoms: _40  and  _41
REMARK   15  A    between atoms: _46  and  _48
REMARK   16  A    between atoms: _48  and  _49
REMARK   17  A    between atoms: _48  and  _51
REMARK   18  A    between atoms: _51  and  _52
REMARK   19  A    between atoms: _57  and  _59
REMARK   20  A    between atoms: _59  and  _60
REMARK   21  A    between atoms: _63  and  _65
REMARK   22  A    between atoms: _65  and  _66
REMARK   23  A    between atoms: _65  and  _68
REMARK   24  A    between atoms: _68  and  _69
REMARK   25  A    between atoms: _74  and  _76
REMARK   26  A    between atoms: _76  and  _77
REMARK   27  A    between atoms: _76  and  _79
REMARK   28  A    between atoms: _79  and  _80
REMARK   29  A    between atoms: _83  and  _85
REMARK   30  A    between atoms: _85  and  _86
REMARK   31  A    between atoms: _85  and  _88
REMARK   32  A    between atoms: _88  and  _89
REMARK   33  A    between atoms: _89  and  _90
REMARK   34  A    between atoms: _95  and  _97
REMARK   35  A    between atoms: _97  and  _98
REMARK   36  A    between atoms: _97  and  _100
REMARK   37  A    between atoms: _100  and  _101
REMARK   38  A    between atoms: _107  and  _109
REMARK   39  A    between atoms: _120  and  _123
REMARK   40  A    between atoms: _123  and  _124
REMARK   41  A    between atoms: _132  and  _133
REMARK   42  A    between atoms: _141  and  _143
REMARK   43  A    between atoms: _143  and  _144
REMARK   44  A    between atoms: _143  and  _146
REMARK   45  A    between atoms: _146  and  _147
REMARK   46  A    between atoms: _147  and  _148
REMARK   47  A    between atoms: _151  and  _153
REMARK   48  A    between atoms: _153  and  _154
REMARK   49  A    between atoms: _153  and  _156
REMARK   50  A    between atoms: _156  and  _157
REMARK   51  A    between atoms: _162  and  _164
REMARK   52  A    between atoms: _164  and  _165
REMARK   53  A    between atoms: _164  and  _167
REMARK   54  A    between atoms: _167  and  _168
REMARK   55  A    between atoms: _168  and  _169
REMARK   56  A    between atoms: _172  and  _174
REMARK   57  A    between atoms: _174  and  _175
REMARK   58  A    between atoms: _174  and  _177
REMARK   59  A    between atoms: _177  and  _178
REMARK   60  A    between atoms: _181  and  _183
REMARK   61  A    between atoms: _183  and  _184
REMARK   62  A    between atoms: _183  and  _186
REMARK   63  A    between atoms: _186  and  _187
REMARK   64  A    between atoms: _188  and  ZN_420
REMARK   65  A    between atoms: _192  and  _194
REMARK   66  A    between atoms: _194  and  _195
REMARK   67  A    between atoms: _194  and  _197
REMARK   68  A    between atoms: _197  and  _198
REMARK   69  A    between atoms: _201  and  _203
REMARK   70  A    between atoms: _203  and  _204
REMARK   71  A    between atoms: _203  and  _206
REMARK   72  A    between atoms: _209  and  _211
REMARK   73  A    between atoms: _211  and  _212
REMARK   74  A    between atoms: _211  and  _214
REMARK   75  A    between atoms: _214  and  _215
REMARK   76  A    between atoms: _220  and  _222
REMARK   77  A    between atoms: _222  and  _223
REMARK   78  A    between atoms: _222  and  _225
REMARK   79  A    between atoms: _225  and  _226
REMARK   80  A    between atoms: _232  and  _234
REMARK   81  A    between atoms: _234  and  _235
REMARK   82  A    between atoms: _237  and  _239
REMARK   83  A    between atoms: _239  and  _240
REMARK   84  A    between atoms: _239  and  _242
REMARK   85  A    between atoms: _245  and  _247
REMARK   86  A    between atoms: _247  and  _248
REMARK   87  A    between atoms: _247  and  _250
REMARK   88  A    between atoms: _250  and  _251
REMARK   89  A    between atoms: _251  and  _252
REMARK   90  A    between atoms: _257  and  _259
REMARK   91  A    between atoms: _259  and  _260
REMARK   92  A    between atoms: _259  and  _262
REMARK   93  A    between atoms: _262  and  _263
REMARK   94  A    between atoms: _266  and  _268
REMARK   95  A    between atoms: _268  and  _269
REMARK   96  A    between atoms: _272  and  _274
REMARK   97  A    between atoms: _274  and  _275
REMARK   98  A    between atoms: _274  and  _277
REMARK   99  A    between atoms: _280  and  _282
REMARK  100  A    between atoms: _282  and  _283
REMARK  101  A    between atoms: _282  and  _285
REMARK  102  A    between atoms: _285  and  _286
REMARK  103  A    between atoms: _289  and  _291
REMARK  104  A    between atoms: _291  and  _292
REMARK  105  A    between atoms: _294  and  _296
REMARK  106  A    between atoms: _296  and  _297
REMARK  107  A    between atoms: _296  and  _299
REMARK  108  A    between atoms: _299  and  _300
REMARK  109  A    between atoms: _302  and  _304
REMARK  110  A    between atoms: _304  and  _305
REMARK  111  A    between atoms: _304  and  _307
REMARK  112  A    between atoms: _307  and  _308
REMARK  113  A    between atoms: _311  and  _313
REMARK  114  A    between atoms: _313  and  _314
REMARK  115  A    between atoms: _313  and  _316
REMARK  116  A    between atoms: _316  and  _317
REMARK  117  A    between atoms: _320  and  _322
REMARK  118  A    between atoms: _322  and  _323
REMARK  119  A    between atoms: _322  and  _325
REMARK  120  A    between atoms: _325  and  _326
REMARK  121  A    between atoms: _330  and  _331
REMARK  122  A    between atoms: _337  and  _338
REMARK  123  A    between atoms: _343  and  _345
REMARK  124  A    between atoms: _345  and  _346
REMARK  125  A    between atoms: _345  and  _348
REMARK  126  A    between atoms: _348  and  _349
REMARK  127  A    between atoms: _352  and  _354
REMARK  128  A    between atoms: _354  and  _355
REMARK  129  A    between atoms: _354  and  _357
REMARK  130  A    between atoms: _357  and  _358
REMARK  131  A    between atoms: _361  and  _363
REMARK  132  A    between atoms: _363  and  _364
REMARK  133  A    between atoms: _363  and  _366
REMARK  134  A    between atoms: _368  and  _370
REMARK  135  A    between atoms: _370  and  _371
REMARK  136  A    between atoms: _370  and  _373
REMARK  137  A    between atoms: _376  and  _378
REMARK  138  A    between atoms: _378  and  _379
REMARK  139  A    between atoms: _378  and  _381
REMARK  140  A    between atoms: _381  and  _382
REMARK  141  A    between atoms: _392  and  _394
REMARK  142  A    between atoms: _394  and  _395
REMARK  143  A    between atoms: _394  and  _397
REMARK  144  A    between atoms: _397  and  _398
REMARK  145  A    between atoms: _403  and  _405
REMARK  146  A    between atoms: _405  and  _406
REMARK  147  A    between atoms: _405  and  _408
REMARK  148  A    between atoms: _408  and  _409
REMARK  149  A    between atoms: _409  and  _410
REMARK  150  A    between atoms: _410  and  _411
REMARK                            x       y       z     vdW  Elec       q    Type
REMARK                         _______ _______ _______ _____ _____    ______ ____
ROOT
ATOM      1  O   HOH     1      -1.203  -4.042  15.807  0.00  0.00    +0.000 OA
ENDROOT
TORSDOF 0
REMARK  Name = ../refined-set-2016/3mzc/3mzc_pocket.pdb
REMARK  150 active torsions:
REMARK  status: ('A' for Active; 'I' for Inactive)
REMARK    1  A    between atoms: _1  and  _3
REMARK    2  A    between atoms: _3  and  _4
REMARK    3  A    between atoms: _3  and  _6
REMARK    4  A    between atoms: _6  and  _7
REMARK    5  A    between atoms: _17  and  _19
REMARK    6  A    between atoms: _19  and  _20
REMARK    7  A    between atoms: _19  and  _22
REMARK    8  A    between atoms: _22  and  _23
REMARK    9  A    between atoms: _28  and  _29
REMARK   10  A    between atoms: _31  and  _33
REMARK   11  A    between atoms: _33  and  _34
REMARK   12  A    between atoms: _33  and  _36
REMARK   13  A    between atoms: _36  and  _37
REMARK   14  A    between atoms: _40  and  _41
REMARK   15  A    between atoms: _46  and  _48
REMARK   16  A    between atoms: _48  and  _49
REMARK   17  A    between atoms: _48  and  _51
REMARK   18  A    between atoms: _51  and  _52
REMARK   19  A    between atoms: _57  and  _59
REMARK   20  A    between atoms: _59  and  _60
REMARK   21  A    between atoms: _63  and  _65
REMARK   22  A    between atoms: _65  and  _66
REMARK   23  A    between atoms: _65  and  _68
REMARK   24  A    between atoms: _68  and  _69
REMARK   25  A    between atoms: _74  and  _76
REMARK   26  A    between atoms: _76  and  _77
REMARK   27  A    between atoms: _76  and  _79
REMARK   28  A    between atoms: _79  and  _80
REMARK   29  A    between atoms: _83  and  _85
REMARK   30  A    between atoms: _85  and  _86
REMARK   31  A    between atoms: _85  and  _88
REMARK   32  A    between atoms: _88  and  _89
REMARK   33  A    between atoms: _89  and  _90
REMARK   34  A    between atoms: _95  and  _97
REMARK   35  A    between atoms: _97  and  _98
REMARK   36  A    between atoms: _97  and  _100
REMARK   37  A    between atoms: _100  and  _101
REMARK   38  A    between atoms: _107  and  _109
REMARK   39  A    between atoms: _120  and  _123
REMARK   40  A    between atoms: _123  and  _124
REMARK   41  A    between atoms: _132  and  _133
REMARK   42  A    between atoms: _141  and  _143
REMARK   43  A    between atoms: _143  and  _144
REMARK   44  A    between atoms: _143  and  _146
REMARK   45  A    between atoms: _146  and  _147
REMARK   46  A    between atoms: _147  and  _148
REMARK   47  A    between atoms: _151  and  _153
REMARK   48  A    between atoms: _153  and  _154
REMARK   49  A    between atoms: _153  and  _156
REMARK   50  A    between atoms: _156  and  _157
REMARK   51  A    between atoms: _162  and  _164
REMARK   52  A    between atoms: _164  and  _165
REMARK   53  A    between atoms: _164  and  _167
REMARK   54  A    between atoms: _167  and  _168
REMARK   55  A    between atoms: _168  and  _169
REMARK   56  A    between atoms: _172  and  _174
REMARK   57  A    between atoms: _174  and  _175
REMARK   58  A    between atoms: _174  and  _177
REMARK   59  A    between atoms: _177  and  _178
REMARK   60  A    between atoms: _181  and  _183
REMARK   61  A    between atoms: _183  and  _184
REMARK   62  A    between atoms: _183  and  _186
REMARK   63  A    between atoms: _186  and  _187
REMARK   64  A    between atoms: _188  and  ZN_420
REMARK   65  A    between atoms: _192  and  _194
REMARK   66  A    between atoms: _194  and  _195
REMARK   67  A    between atoms: _194  and  _197
REMARK   68  A    between atoms: _197  and  _198
REMARK   69  A    between atoms: _201  and  _203
REMARK   70  A    between atoms: _203  and  _204
REMARK   71  A    between atoms: _203  and  _206
REMARK   72  A    between atoms: _209  and  _211
REMARK   73  A    between atoms: _211  and  _212
REMARK   74  A    between atoms: _211  and  _214
REMARK   75  A    between atoms: _214  and  _215
REMARK   76  A    between atoms: _220  and  _222
REMARK   77  A    between atoms: _222  and  _223
REMARK   78  A    between atoms: _222  and  _225
REMARK   79  A    between atoms: _225  and  _226
REMARK   80  A    between atoms: _232  and  _234
REMARK   81  A    between atoms: _234  and  _235
REMARK   82  A    between atoms: _237  and  _239
REMARK   83  A    between atoms: _239  and  _240
REMARK   84  A    between atoms: _239  and  _242
REMARK   85  A    between atoms: _245  and  _247
REMARK   86  A    between atoms: _247  and  _248
REMARK   87  A    between atoms: _247  and  _250
REMARK   88  A    between atoms: _250  and  _251
REMARK   89  A    between atoms: _251  and  _252
REMARK   90  A    between atoms: _257  and  _259
REMARK   91  A    between atoms: _259  and  _260
REMARK   92  A    between atoms: _259  and  _262
REMARK   93  A    between atoms: _262  and  _263
REMARK   94  A    between atoms: _266  and  _268
REMARK   95  A    between atoms: _268  and  _269
REMARK   96  A    between atoms: _272  and  _274
REMARK   97  A    between atoms: _274  and  _275
REMARK   98  A    between atoms: _274  and  _277
REMARK   99  A    between atoms: _280  and  _282
REMARK  100  A    between atoms: _282  and  _283
REMARK  101  A    between atoms: _282  and  _285
REMARK  102  A    between atoms: _285  and  _286
REMARK  103  A    between atoms: _289  and  _291
REMARK  104  A    between atoms: _291  and  _292
REMARK  105  A    between atoms: _294  and  _296
REMARK  106  A    between atoms: _296  and  _297
REMARK  107  A    between atoms: _296  and  _299
REMARK  108  A    between atoms: _299  and  _300
REMARK  109  A    between atoms: _302  and  _304
REMARK  110  A    between atoms: _304  and  _305
REMARK  111  A    between atoms: _304  and  _307
REMARK  112  A    between atoms: _307  and  _308
REMARK  113  A    between atoms: _311  and  _313
REMARK  114  A    between atoms: _313  and  _314
REMARK  115  A    between atoms: _313  and  _316
REMARK  116  A    between atoms: _316  and  _317
REMARK  117  A    between atoms: _320  and  _322
REMARK  118  A    between atoms: _322  and  _323
REMARK  119  A    between atoms: _322  and  _325
REMARK  120  A    between atoms: _325  and  _326
REMARK  121  A    between atoms: _330  and  _331
REMARK  122  A    between atoms: _337  and  _338
REMARK  123  A    between atoms: _343  and  _345
REMARK  124  A    between atoms: _345  and  _346
REMARK  125  A    between atoms: _345  and  _348
REMARK  126  A    between atoms: _348  and  _349
REMARK  127  A    between atoms: _352  and  _354
REMARK  128  A    between atoms: _354  and  _355
REMARK  129  A    between atoms: _354  and  _357
REMARK  130  A    between atoms: _357  and  _358
REMARK  131  A    between atoms: _361  and  _363
REMARK  132  A    between atoms: _363  and  _364
REMARK  133  A    between atoms: _363  and  _366
REMARK  134  A    between atoms: _368  and  _370
REMARK  135  A    between atoms: _370  and  _371
REMARK  136  A    between atoms: _370  and  _373
REMARK  137  A    between atoms: _376  and  _378
REMARK  138  A    between atoms: _378  and  _379
REMARK  139  A    between atoms: _378  and  _381
REMARK  140  A    between atoms: _381  and  _382
REMARK  141  A    between atoms: _392  and  _394
REMARK  142  A    between atoms: _394  and  _395
REMARK  143  A    between atoms: _394  and  _397
REMARK  144  A    between atoms: _397  and  _398
REMARK  145  A    between atoms: _403  and  _405
REMARK  146  A    between atoms: _405  and  _406
REMARK  147  A    between atoms: _405  and  _408
REMARK  148  A    between atoms: _408  and  _409
REMARK  149  A    between atoms: _409  and  _410
REMARK  150  A    between atoms: _410  and  _411
REMARK                            x       y       z     vdW  Elec       q    Type
REMARK                         _______ _______ _______ _____ _____    ______ ____
ROOT
ATOM      1  O   HOH     1      -6.330   6.747  11.727  0.00  0.00    +0.000 OA
ENDROOT
TORSDOF 0
REMARK  Name = ../refined-set-2016/3mzc/3mzc_pocket.pdb
REMARK  150 active torsions:
REMARK  status: ('A' for Active; 'I' for Inactive)
REMARK    1  A    between atoms: _1  and  _3
REMARK    2  A    between atoms: _3  and  _4
REMARK    3  A    between atoms: _3  and  _6
REMARK    4  A    between atoms: _6  and  _7
REMARK    5  A    between atoms: _17  and  _19
REMARK    6  A    between atoms: _19  and  _20
REMARK    7  A    between atoms: _19  and  _22
REMARK    8  A    between atoms: _22  and  _23
REMARK    9  A    between atoms: _28  and  _29
REMARK   10  A    between atoms: _31  and  _33
REMARK   11  A    between atoms: _33  and  _34
REMARK   12  A    between atoms: _33  and  _36
REMARK   13  A    between atoms: _36  and  _37
REMARK   14  A    between atoms: _40  and  _41
REMARK   15  A    between atoms: _46  and  _48
REMARK   16  A    between atoms: _48  and  _49
REMARK   17  A    between atoms: _48  and  _51
REMARK   18  A    between atoms: _51  and  _52
REMARK   19  A    between atoms: _57  and  _59
REMARK   20  A    between atoms: _59  and  _60
REMARK   21  A    between atoms: _63  and  _65
REMARK   22  A    between atoms: _65  and  _66
REMARK   23  A    between atoms: _65  and  _68
REMARK   24  A    between atoms: _68  and  _69
REMARK   25  A    between atoms: _74  and  _76
REMARK   26  A    between atoms: _76  and  _77
REMARK   27  A    between atoms: _76  and  _79
REMARK   28  A    between atoms: _79  and  _80
REMARK   29  A    between atoms: _83  and  _85
REMARK   30  A    between atoms: _85  and  _86
REMARK   31  A    between atoms: _85  and  _88
REMARK   32  A    between atoms: _88  and  _89
REMARK   33  A    between atoms: _89  and  _90
REMARK   34  A    between atoms: _95  and  _97
REMARK   35  A    between atoms: _97  and  _98
REMARK   36  A    between atoms: _97  and  _100
REMARK   37  A    between atoms: _100  and  _101
REMARK   38  A    between atoms: _107  and  _109
REMARK   39  A    between atoms: _120  and  _123
REMARK   40  A    between atoms: _123  and  _124
REMARK   41  A    between atoms: _132  and  _133
REMARK   42  A    between atoms: _141  and  _143
REMARK   43  A    between atoms: _143  and  _144
REMARK   44  A    between atoms: _143  and  _146
REMARK   45  A    between atoms: _146  and  _147
REMARK   46  A    between atoms: _147  and  _148
REMARK   47  A    between atoms: _151  and  _153
REMARK   48  A    between atoms: _153  and  _154
REMARK   49  A    between atoms: _153  and  _156
REMARK   50  A    between atoms: _156  and  _157
REMARK   51  A    between atoms: _162  and  _164
REMARK   52  A    between atoms: _164  and  _165
REMARK   53  A    between atoms: _164  and  _167
REMARK   54  A    between atoms: _167  and  _168
REMARK   55  A    between atoms: _168  and  _169
REMARK   56  A    between atoms: _172  and  _174
REMARK   57  A    between atoms: _174  and  _175
REMARK   58  A    between atoms: _174  and  _177
REMARK   59  A    between atoms: _177  and  _178
REMARK   60  A    between atoms: _181  and  _183
REMARK   61  A    between atoms: _183  and  _184
REMARK   62  A    between atoms: _183  and  _186
REMARK   63  A    between atoms: _186  and  _187
REMARK   64  A    between atoms: _188  and  ZN_420
REMARK   65  A    between atoms: _192  and  _194
REMARK   66  A    between atoms: _194  and  _195
REMARK   67  A    between atoms: _194  and  _197
REMARK   68  A    between atoms: _197  and  _198
REMARK   69  A    between atoms: _201  and  _203
REMARK   70  A    between atoms: _203  and  _204
REMARK   71  A    between atoms: _203  and  _206
REMARK   72  A    between atoms: _209  and  _211
REMARK   73  A    between atoms: _211  and  _212
REMARK   74  A    between atoms: _211  and  _214
REMARK   75  A    between atoms: _214  and  _215
REMARK   76  A    between atoms: _220  and  _222
REMARK   77  A    between atoms: _222  and  _223
REMARK   78  A    between atoms: _222  and  _225
REMARK   79  A    between atoms: _225  and  _226
REMARK   80  A    between atoms: _232  and  _234
REMARK   81  A    between atoms: _234  and  _235
REMARK   82  A    between atoms: _237  and  _239
REMARK   83  A    between atoms: _239  and  _240
REMARK   84  A    between atoms: _239  and  _242
REMARK   85  A    between atoms: _245  and  _247
REMARK   86  A    between atoms: _247  and  _248
REMARK   87  A    between atoms: _247  and  _250
REMARK   88  A    between atoms: _250  and  _251
REMARK   89  A    between atoms: _251  and  _252
REMARK   90  A    between atoms: _257  and  _259
REMARK   91  A    between atoms: _259  and  _260
REMARK   92  A    between atoms: _259  and  _262
REMARK   93  A    between atoms: _262  and  _263
REMARK   94  A    between atoms: _266  and  _268
REMARK   95  A    between atoms: _268  and  _269
REMARK   96  A    between atoms: _272  and  _274
REMARK   97  A    between atoms: _274  and  _275
REMARK   98  A    between atoms: _274  and  _277
REMARK   99  A    between atoms: _280  and  _282
REMARK  100  A    between atoms: _282  and  _283
REMARK  101  A    between atoms: _282  and  _285
REMARK  102  A    between atoms: _285  and  _286
REMARK  103  A    between atoms: _289  and  _291
REMARK  104  A    between atoms: _291  and  _292
REMARK  105  A    between atoms: _294  and  _296
REMARK  106  A    between atoms: _296  and  _297
REMARK  107  A    between atoms: _296  and  _299
REMARK  108  A    between atoms: _299  and  _300
REMARK  109  A    between atoms: _302  and  _304
REMARK  110  A    between atoms: _304  and  _305
REMARK  111  A    between atoms: _304  and  _307
REMARK  112  A    between atoms: _307  and  _308
REMARK  113  A    between atoms: _311  and  _313
REMARK  114  A    between atoms: _313  and  _314
REMARK  115  A    between atoms: _313  and  _316
REMARK  116  A    between atoms: _316  and  _317
REMARK  117  A    between atoms: _320  and  _322
REMARK  118  A    between atoms: _322  and  _323
REMARK  119  A    between atoms: _322  and  _325
REMARK  120  A    between atoms: _325  and  _326
REMARK  121  A    between atoms: _330  and  _331
REMARK  122  A    between atoms: _337  and  _338
REMARK  123  A    between atoms: _343  and  _345
REMARK  124  A    between atoms: _345  and  _346
REMARK  125  A    between atoms: _345  and  _348
REMARK  126  A    between atoms: _348  and  _349
REMARK  127  A    between atoms: _352  and  _354
REMARK  128  A    between atoms: _354  and  _355
REMARK  129  A    between atoms: _354  and  _357
REMARK  130  A    between atoms: _357  and  _358
REMARK  131  A    between atoms: _361  and  _363
REMARK  132  A    between atoms: _363  and  _364
REMARK  133  A    between atoms: _363  and  _366
REMARK  134  A    between atoms: _368  and  _370
REMARK  135  A    between atoms: _370  and  _371
REMARK  136  A    between atoms: _370  and  _373
REMARK  137  A    between atoms: _376  and  _378
REMARK  138  A    between atoms: _378  and  _379
REMARK  139  A    between atoms: _378  and  _381
REMARK  140  A    between atoms: _381  and  _382
REMARK  141  A    between atoms: _392  and  _394
REMARK  142  A    between atoms: _394  and  _395
REMARK  143  A    between atoms: _394  and  _397
REMARK  144  A    between atoms: _397  and  _398
REMARK  145  A    between atoms: _403  and  _405
REMARK  146  A    between atoms: _405  and  _406
REMARK  147  A    between atoms: _405  and  _408
REMARK  148  A    between atoms: _408  and  _409
REMARK  149  A    between atoms: _409  and  _410
REMARK  150  A    between atoms: _410  and  _411
REMARK                            x       y       z     vdW  Elec       q    Type
REMARK                         _______ _______ _______ _____ _____    ______ ____
ROOT
ATOM      1  O   HOH     1      -2.412  -3.199  11.500  0.00  0.00    +0.000 OA
ENDROOT
TORSDOF 0
REMARK  Name = ../refined-set-2016/3mzc/3mzc_pocket.pdb
REMARK  150 active torsions:
REMARK  status: ('A' for Active; 'I' for Inactive)
REMARK    1  A    between atoms: _1  and  _3
REMARK    2  A    between atoms: _3  and  _4
REMARK    3  A    between atoms: _3  and  _6
REMARK    4  A    between atoms: _6  and  _7
REMARK    5  A    between atoms: _17  and  _19
REMARK    6  A    between atoms: _19  and  _20
REMARK    7  A    between atoms: _19  and  _22
REMARK    8  A    between atoms: _22  and  _23
REMARK    9  A    between atoms: _28  and  _29
REMARK   10  A    between atoms: _31  and  _33
REMARK   11  A    between atoms: _33  and  _34
REMARK   12  A    between atoms: _33  and  _36
REMARK   13  A    between atoms: _36  and  _37
REMARK   14  A    between atoms: _40  and  _41
REMARK   15  A    between atoms: _46  and  _48
REMARK   16  A    between atoms: _48  and  _49
REMARK   17  A    between atoms: _48  and  _51
REMARK   18  A    between atoms: _51  and  _52
REMARK   19  A    between atoms: _57  and  _59
REMARK   20  A    between atoms: _59  and  _60
REMARK   21  A    between atoms: _63  and  _65
REMARK   22  A    between atoms: _65  and  _66
REMARK   23  A    between atoms: _65  and  _68
REMARK   24  A    between atoms: _68  and  _69
REMARK   25  A    between atoms: _74  and  _76
REMARK   26  A    between atoms: _76  and  _77
REMARK   27  A    between atoms: _76  and  _79
REMARK   28  A    between atoms: _79  and  _80
REMARK   29  A    between atoms: _83  and  _85
REMARK   30  A    between atoms: _85  and  _86
REMARK   31  A    between atoms: _85  and  _88
REMARK   32  A    between atoms: _88  and  _89
REMARK   33  A    between atoms: _89  and  _90
REMARK   34  A    between atoms: _95  and  _97
REMARK   35  A    between atoms: _97  and  _98
REMARK   36  A    between atoms: _97  and  _100
REMARK   37  A    between atoms: _100  and  _101
REMARK   38  A    between atoms: _107  and  _109
REMARK   39  A    between atoms: _120  and  _123
REMARK   40  A    between atoms: _123  and  _124
REMARK   41  A    between atoms: _132  and  _133
REMARK   42  A    between atoms: _141  and  _143
REMARK   43  A    between atoms: _143  and  _144
REMARK   44  A    between atoms: _143  and  _146
REMARK   45  A    between atoms: _146  and  _147
REMARK   46  A    between atoms: _147  and  _148
REMARK   47  A    between atoms: _151  and  _153
REMARK   48  A    between atoms: _153  and  _154
REMARK   49  A    between atoms: _153  and  _156
REMARK   50  A    between atoms: _156  and  _157
REMARK   51  A    between atoms: _162  and  _164
REMARK   52  A    between atoms: _164  and  _165
REMARK   53  A    between atoms: _164  and  _167
REMARK   54  A    between atoms: _167  and  _168
REMARK   55  A    between atoms: _168  and  _169
REMARK   56  A    between atoms: _172  and  _174
REMARK   57  A    between atoms: _174  and  _175
REMARK   58  A    between atoms: _174  and  _177
REMARK   59  A    between atoms: _177  and  _178
REMARK   60  A    between atoms: _181  and  _183
REMARK   61  A    between atoms: _183  and  _184
REMARK   62  A    between atoms: _183  and  _186
REMARK   63  A    between atoms: _186  and  _187
REMARK   64  A    between atoms: _188  and  ZN_420
REMARK   65  A    between atoms: _192  and  _194
REMARK   66  A    between atoms: _194  and  _195
REMARK   67  A    between atoms: _194  and  _197
REMARK   68  A    between atoms: _197  and  _198
REMARK   69  A    between atoms: _201  and  _203
REMARK   70  A    between atoms: _203  and  _204
REMARK   71  A    between atoms: _203  and  _206
REMARK   72  A    between atoms: _209  and  _211
REMARK   73  A    between atoms: _211  and  _212
REMARK   74  A    between atoms: _211  and  _214
REMARK   75  A    between atoms: _214  and  _215
REMARK   76  A    between atoms: _220  and  _222
REMARK   77  A    between atoms: _222  and  _223
REMARK   78  A    between atoms: _222  and  _225
REMARK   79  A    between atoms: _225  and  _226
REMARK   80  A    between atoms: _232  and  _234
REMARK   81  A    between atoms: _234  and  _235
REMARK   82  A    between atoms: _237  and  _239
REMARK   83  A    between atoms: _239  and  _240
REMARK   84  A    between atoms: _239  and  _242
REMARK   85  A    between atoms: _245  and  _247
REMARK   86  A    between atoms: _247  and  _248
REMARK   87  A    between atoms: _247  and  _250
REMARK   88  A    between atoms: _250  and  _251
REMARK   89  A    between atoms: _251  and  _252
REMARK   90  A    between atoms: _257  and  _259
REMARK   91  A    between atoms: _259  and  _260
REMARK   92  A    between atoms: _259  and  _262
REMARK   93  A    between atoms: _262  and  _263
REMARK   94  A    between atoms: _266  and  _268
REMARK   95  A    between atoms: _268  and  _269
REMARK   96  A    between atoms: _272  and  _274
REMARK   97  A    between atoms: _274  and  _275
REMARK   98  A    between atoms: _274  and  _277
REMARK   99  A    between atoms: _280  and  _282
REMARK  100  A    between atoms: _282  and  _283
REMARK  101  A    between atoms: _282  and  _285
REMARK  102  A    between atoms: _285  and  _286
REMARK  103  A    between atoms: _289  and  _291
REMARK  104  A    between atoms: _291  and  _292
REMARK  105  A    between atoms: _294  and  _296
REMARK  106  A    between atoms: _296  and  _297
REMARK  107  A    between atoms: _296  and  _299
REMARK  108  A    between atoms: _299  and  _300
REMARK  109  A    between atoms: _302  and  _304
REMARK  110  A    between atoms: _304  and  _305
REMARK  111  A    between atoms: _304  and  _307
REMARK  112  A    between atoms: _307  and  _308
REMARK  113  A    between atoms: _311  and  _313
REMARK  114  A    between atoms: _313  and  _314
REMARK  115  A    between atoms: _313  and  _316
REMARK  116  A    between atoms: _316  and  _317
REMARK  117  A    between atoms: _320  and  _322
REMARK  118  A    between atoms: _322  and  _323
REMARK  119  A    between atoms: _322  and  _325
REMARK  120  A    between atoms: _325  and  _326
REMARK  121  A    between atoms: _330  and  _331
REMARK  122  A    between atoms: _337  and  _338
REMARK  123  A    between atoms: _343  and  _345
REMARK  124  A    between atoms: _345  and  _346
REMARK  125  A    between atoms: _345  and  _348
REMARK  126  A    between atoms: _348  and  _349
REMARK  127  A    between atoms: _352  and  _354
REMARK  128  A    between atoms: _354  and  _355
REMARK  129  A    between atoms: _354  and  _357
REMARK  130  A    between atoms: _357  and  _358
REMARK  131  A    between atoms: _361  and  _363
REMARK  132  A    between atoms: _363  and  _364
REMARK  133  A    between atoms: _363  and  _366
REMARK  134  A    between atoms: _368  and  _370
REMARK  135  A    between atoms: _370  and  _371
REMARK  136  A    between atoms: _370  and  _373
REMARK  137  A    between atoms: _376  and  _378
REMARK  138  A    between atoms: _378  and  _379
REMARK  139  A    between atoms: _378  and  _381
REMARK  140  A    between atoms: _381  and  _382
REMARK  141  A    between atoms: _392  and  _394
REMARK  142  A    between atoms: _394  and  _395
REMARK  143  A    between atoms: _394  and  _397
REMARK  144  A    between atoms: _397  and  _398
REMARK  145  A    between atoms: _403  and  _405
REMARK  146  A    between atoms: _405  and  _406
REMARK  147  A    between atoms: _405  and  _408
REMARK  148  A    between atoms: _408  and  _409
REMARK  149  A    between atoms: _409  and  _410
REMARK  150  A    between atoms: _410  and  _411
REMARK                            x       y       z     vdW  Elec       q    Type
REMARK                         _______ _______ _______ _____ _____    ______ ____
ROOT
ATOM      1  O   HOH     1      -0.100   4.830  12.958  0.00  0.00    +0.000 OA
ENDROOT
TORSDOF 0
REMARK  Name = ../refined-set-2016/3mzc/3mzc_pocket.pdb
REMARK  150 active torsions:
REMARK  status: ('A' for Active; 'I' for Inactive)
REMARK    1  A    between atoms: _1  and  _3
REMARK    2  A    between atoms: _3  and  _4
REMARK    3  A    between atoms: _3  and  _6
REMARK    4  A    between atoms: _6  and  _7
REMARK    5  A    between atoms: _17  and  _19
REMARK    6  A    between atoms: _19  and  _20
REMARK    7  A    between atoms: _19  and  _22
REMARK    8  A    between atoms: _22  and  _23
REMARK    9  A    between atoms: _28  and  _29
REMARK   10  A    between atoms: _31  and  _33
REMARK   11  A    between atoms: _33  and  _34
REMARK   12  A    between atoms: _33  and  _36
REMARK   13  A    between atoms: _36  and  _37
REMARK   14  A    between atoms: _40  and  _41
REMARK   15  A    between atoms: _46  and  _48
REMARK   16  A    between atoms: _48  and  _49
REMARK   17  A    between atoms: _48  and  _51
REMARK   18  A    between atoms: _51  and  _52
REMARK   19  A    between atoms: _57  and  _59
REMARK   20  A    between atoms: _59  and  _60
REMARK   21  A    between atoms: _63  and  _65
REMARK   22  A    between atoms: _65  and  _66
REMARK   23  A    between atoms: _65  and  _68
REMARK   24  A    between atoms: _68  and  _69
REMARK   25  A    between atoms: _74  and  _76
REMARK   26  A    between atoms: _76  and  _77
REMARK   27  A    between atoms: _76  and  _79
REMARK   28  A    between atoms: _79  and  _80
REMARK   29  A    between atoms: _83  and  _85
REMARK   30  A    between atoms: _85  and  _86
REMARK   31  A    between atoms: _85  and  _88
REMARK   32  A    between atoms: _88  and  _89
REMARK   33  A    between atoms: _89  and  _90
REMARK   34  A    between atoms: _95  and  _97
REMARK   35  A    between atoms: _97  and  _98
REMARK   36  A    between atoms: _97  and  _100
REMARK   37  A    between atoms: _100  and  _101
REMARK   38  A    between atoms: _107  and  _109
REMARK   39  A    between atoms: _120  and  _123
REMARK   40  A    between atoms: _123  and  _124
REMARK   41  A    between atoms: _132  and  _133
REMARK   42  A    between atoms: _141  and  _143
REMARK   43  A    between atoms: _143  and  _144
REMARK   44  A    between atoms: _143  and  _146
REMARK   45  A    between atoms: _146  and  _147
REMARK   46  A    between atoms: _147  and  _148
REMARK   47  A    between atoms: _151  and  _153
REMARK   48  A    between atoms: _153  and  _154
REMARK   49  A    between atoms: _153  and  _156
REMARK   50  A    between atoms: _156  and  _157
REMARK   51  A    between atoms: _162  and  _164
REMARK   52  A    between atoms: _164  and  _165
REMARK   53  A    between atoms: _164  and  _167
REMARK   54  A    between atoms: _167  and  _168
REMARK   55  A    between atoms: _168  and  _169
REMARK   56  A    between atoms: _172  and  _174
REMARK   57  A    between atoms: _174  and  _175
REMARK   58  A    between atoms: _174  and  _177
REMARK   59  A    between atoms: _177  and  _178
REMARK   60  A    between atoms: _181  and  _183
REMARK   61  A    between atoms: _183  and  _184
REMARK   62  A    between atoms: _183  and  _186
REMARK   63  A    between atoms: _186  and  _187
REMARK   64  A    between atoms: _188  and  ZN_420
REMARK   65  A    between atoms: _192  and  _194
REMARK   66  A    between atoms: _194  and  _195
REMARK   67  A    between atoms: _194  and  _197
REMARK   68  A    between atoms: _197  and  _198
REMARK   69  A    between atoms: _201  and  _203
REMARK   70  A    between atoms: _203  and  _204
REMARK   71  A    between atoms: _203  and  _206
REMARK   72  A    between atoms: _209  and  _211
REMARK   73  A    between atoms: _211  and  _212
REMARK   74  A    between atoms: _211  and  _214
REMARK   75  A    between atoms: _214  and  _215
REMARK   76  A    between atoms: _220  and  _222
REMARK   77  A    between atoms: _222  and  _223
REMARK   78  A    between atoms: _222  and  _225
REMARK   79  A    between atoms: _225  and  _226
REMARK   80  A    between atoms: _232  and  _234
REMARK   81  A    between atoms: _234  and  _235
REMARK   82  A    between atoms: _237  and  _239
REMARK   83  A    between atoms: _239  and  _240
REMARK   84  A    between atoms: _239  and  _242
REMARK   85  A    between atoms: _245  and  _247
REMARK   86  A    between atoms: _247  and  _248
REMARK   87  A    between atoms: _247  and  _250
REMARK   88  A    between atoms: _250  and  _251
REMARK   89  A    between atoms: _251  and  _252
REMARK   90  A    between atoms: _257  and  _259
REMARK   91  A    between atoms: _259  and  _260
REMARK   92  A    between atoms: _259  and  _262
REMARK   93  A    between atoms: _262  and  _263
REMARK   94  A    between atoms: _266  and  _268
REMARK   95  A    between atoms: _268  and  _269
REMARK   96  A    between atoms: _272  and  _274
REMARK   97  A    between atoms: _274  and  _275
REMARK   98  A    between atoms: _274  and  _277
REMARK   99  A    between atoms: _280  and  _282
REMARK  100  A    between atoms: _282  and  _283
REMARK  101  A    between atoms: _282  and  _285
REMARK  102  A    between atoms: _285  and  _286
REMARK  103  A    between atoms: _289  and  _291
REMARK  104  A    between atoms: _291  and  _292
REMARK  105  A    between atoms: _294  and  _296
REMARK  106  A    between atoms: _296  and  _297
REMARK  107  A    between atoms: _296  and  _299
REMARK  108  A    between atoms: _299  and  _300
REMARK  109  A    between atoms: _302  and  _304
REMARK  110  A    between atoms: _304  and  _305
REMARK  111  A    between atoms: _304  and  _307
REMARK  112  A    between atoms: _307  and  _308
REMARK  113  A    between atoms: _311  and  _313
REMARK  114  A    between atoms: _313  and  _314
REMARK  115  A    between atoms: _313  and  _316
REMARK  116  A    between atoms: _316  and  _317
REMARK  117  A    between atoms: _320  and  _322
REMARK  118  A    between atoms: _322  and  _323
REMARK  119  A    between atoms: _322  and  _325
REMARK  120  A    between atoms: _325  and  _326
REMARK  121  A    between atoms: _330  and  _331
REMARK  122  A    between atoms: _337  and  _338
REMARK  123  A    between atoms: _343  and  _345
REMARK  124  A    between atoms: _345  and  _346
REMARK  125  A    between atoms: _345  and  _348
REMARK  126  A    between atoms: _348  and  _349
REMARK  127  A    between atoms: _352  and  _354
REMARK  128  A    between atoms: _354  and  _355
REMARK  129  A    between atoms: _354  and  _357
REMARK  130  A    between atoms: _357  and  _358
REMARK  131  A    between atoms: _361  and  _363
REMARK  132  A    between atoms: _363  and  _364
REMARK  133  A    between atoms: _363  and  _366
REMARK  134  A    between atoms: _368  and  _370
REMARK  135  A    between atoms: _370  and  _371
REMARK  136  A    between atoms: _370  and  _373
REMARK  137  A    between atoms: _376  and  _378
REMARK  138  A    between atoms: _378  and  _379
REMARK  139  A    between atoms: _378  and  _381
REMARK  140  A    between atoms: _381  and  _382
REMARK  141  A    between atoms: _392  and  _394
REMARK  142  A    between atoms: _394  and  _395
REMARK  143  A    between atoms: _394  and  _397
REMARK  144  A    between atoms: _397  and  _398
REMARK  145  A    between atoms: _403  and  _405
REMARK  146  A    between atoms: _405  and  _406
REMARK  147  A    between atoms: _405  and  _408
REMARK  148  A    between atoms: _408  and  _409
REMARK  149  A    between atoms: _409  and  _410
REMARK  150  A    between atoms: _410  and  _411
REMARK                            x       y       z     vdW  Elec       q    Type
REMARK                         _______ _______ _______ _____ _____    ______ ____
ROOT
ATOM      1  O   HOH     1      -6.902   6.056   6.822  0.00  0.00    +0.000 OA
ENDROOT
TORSDOF 0
REMARK  Name = ../refined-set-2016/3mzc/3mzc_pocket.pdb
REMARK  150 active torsions:
REMARK  status: ('A' for Active; 'I' for Inactive)
REMARK    1  A    between atoms: _1  and  _3
REMARK    2  A    between atoms: _3  and  _4
REMARK    3  A    between atoms: _3  and  _6
REMARK    4  A    between atoms: _6  and  _7
REMARK    5  A    between atoms: _17  and  _19
REMARK    6  A    between atoms: _19  and  _20
REMARK    7  A    between atoms: _19  and  _22
REMARK    8  A    between atoms: _22  and  _23
REMARK    9  A    between atoms: _28  and  _29
REMARK   10  A    between atoms: _31  and  _33
REMARK   11  A    between atoms: _33  and  _34
REMARK   12  A    between atoms: _33  and  _36
REMARK   13  A    between atoms: _36  and  _37
REMARK   14  A    between atoms: _40  and  _41
REMARK   15  A    between atoms: _46  and  _48
REMARK   16  A    between atoms: _48  and  _49
REMARK   17  A    between atoms: _48  and  _51
REMARK   18  A    between atoms: _51  and  _52
REMARK   19  A    between atoms: _57  and  _59
REMARK   20  A    between atoms: _59  and  _60
REMARK   21  A    between atoms: _63  and  _65
REMARK   22  A    between atoms: _65  and  _66
REMARK   23  A    between atoms: _65  and  _68
REMARK   24  A    between atoms: _68  and  _69
REMARK   25  A    between atoms: _74  and  _76
REMARK   26  A    between atoms: _76  and  _77
REMARK   27  A    between atoms: _76  and  _79
REMARK   28  A    between atoms: _79  and  _80
REMARK   29  A    between atoms: _83  and  _85
REMARK   30  A    between atoms: _85  and  _86
REMARK   31  A    between atoms: _85  and  _88
REMARK   32  A    between atoms: _88  and  _89
REMARK   33  A    between atoms: _89  and  _90
REMARK   34  A    between atoms: _95  and  _97
REMARK   35  A    between atoms: _97  and  _98
REMARK   36  A    between atoms: _97  and  _100
REMARK   37  A    between atoms: _100  and  _101
REMARK   38  A    between atoms: _107  and  _109
REMARK   39  A    between atoms: _120  and  _123
REMARK   40  A    between atoms: _123  and  _124
REMARK   41  A    between atoms: _132  and  _133
REMARK   42  A    between atoms: _141  and  _143
REMARK   43  A    between atoms: _143  and  _144
REMARK   44  A    between atoms: _143  and  _146
REMARK   45  A    between atoms: _146  and  _147
REMARK   46  A    between atoms: _147  and  _148
REMARK   47  A    between atoms: _151  and  _153
REMARK   48  A    between atoms: _153  and  _154
REMARK   49  A    between atoms: _153  and  _156
REMARK   50  A    between atoms: _156  and  _157
REMARK   51  A    between atoms: _162  and  _164
REMARK   52  A    between atoms: _164  and  _165
REMARK   53  A    between atoms: _164  and  _167
REMARK   54  A    between atoms: _167  and  _168
REMARK   55  A    between atoms: _168  and  _169
REMARK   56  A    between atoms: _172  and  _174
REMARK   57  A    between atoms: _174  and  _175
REMARK   58  A    between atoms: _174  and  _177
REMARK   59  A    between atoms: _177  and  _178
REMARK   60  A    between atoms: _181  and  _183
REMARK   61  A    between atoms: _183  and  _184
REMARK   62  A    between atoms: _183  and  _186
REMARK   63  A    between atoms: _186  and  _187
REMARK   64  A    between atoms: _188  and  ZN_420
REMARK   65  A    between atoms: _192  and  _194
REMARK   66  A    between atoms: _194  and  _195
REMARK   67  A    between atoms: _194  and  _197
REMARK   68  A    between atoms: _197  and  _198
REMARK   69  A    between atoms: _201  and  _203
REMARK   70  A    between atoms: _203  and  _204
REMARK   71  A    between atoms: _203  and  _206
REMARK   72  A    between atoms: _209  and  _211
REMARK   73  A    between atoms: _211  and  _212
REMARK   74  A    between atoms: _211  and  _214
REMARK   75  A    between atoms: _214  and  _215
REMARK   76  A    between atoms: _220  and  _222
REMARK   77  A    between atoms: _222  and  _223
REMARK   78  A    between atoms: _222  and  _225
REMARK   79  A    between atoms: _225  and  _226
REMARK   80  A    between atoms: _232  and  _234
REMARK   81  A    between atoms: _234  and  _235
REMARK   82  A    between atoms: _237  and  _239
REMARK   83  A    between atoms: _239  and  _240
REMARK   84  A    between atoms: _239  and  _242
REMARK   85  A    between atoms: _245  and  _247
REMARK   86  A    between atoms: _247  and  _248
REMARK   87  A    between atoms: _247  and  _250
REMARK   88  A    between atoms: _250  and  _251
REMARK   89  A    between atoms: _251  and  _252
REMARK   90  A    between atoms: _257  and  _259
REMARK   91  A    between atoms: _259  and  _260
REMARK   92  A    between atoms: _259  and  _262
REMARK   93  A    between atoms: _262  and  _263
REMARK   94  A    between atoms: _266  and  _268
REMARK   95  A    between atoms: _268  and  _269
REMARK   96  A    between atoms: _272  and  _274
REMARK   97  A    between atoms: _274  and  _275
REMARK   98  A    between atoms: _274  and  _277
REMARK   99  A    between atoms: _280  and  _282
REMARK  100  A    between atoms: _282  and  _283
REMARK  101  A    between atoms: _282  and  _285
REMARK  102  A    between atoms: _285  and  _286
REMARK  103  A    between atoms: _289  and  _291
REMARK  104  A    between atoms: _291  and  _292
REMARK  105  A    between atoms: _294  and  _296
REMARK  106  A    between atoms: _296  and  _297
REMARK  107  A    between atoms: _296  and  _299
REMARK  108  A    between atoms: _299  and  _300
REMARK  109  A    between atoms: _302  and  _304
REMARK  110  A    between atoms: _304  and  _305
REMARK  111  A    between atoms: _304  and  _307
REMARK  112  A    between atoms: _307  and  _308
REMARK  113  A    between atoms: _311  and  _313
REMARK  114  A    between atoms: _313  and  _314
REMARK  115  A    between atoms: _313  and  _316
REMARK  116  A    between atoms: _316  and  _317
REMARK  117  A    between atoms: _320  and  _322
REMARK  118  A    between atoms: _322  and  _323
REMARK  119  A    between atoms: _322  and  _325
REMARK  120  A    between atoms: _325  and  _326
REMARK  121  A    between atoms: _330  and  _331
REMARK  122  A    between atoms: _337  and  _338
REMARK  123  A    between atoms: _343  and  _345
REMARK  124  A    between atoms: _345  and  _346
REMARK  125  A    between atoms: _345  and  _348
REMARK  126  A    between atoms: _348  and  _349
REMARK  127  A    between atoms: _352  and  _354
REMARK  128  A    between atoms: _354  and  _355
REMARK  129  A    between atoms: _354  and  _357
REMARK  130  A    between atoms: _357  and  _358
REMARK  131  A    between atoms: _361  and  _363
REMARK  132  A    between atoms: _363  and  _364
REMARK  133  A    between atoms: _363  and  _366
REMARK  134  A    between atoms: _368  and  _370
REMARK  135  A    between atoms: _370  and  _371
REMARK  136  A    between atoms: _370  and  _373
REMARK  137  A    between atoms: _376  and  _378
REMARK  138  A    between atoms: _378  and  _379
REMARK  139  A    between atoms: _378  and  _381
REMARK  140  A    between atoms: _381  and  _382
REMARK  141  A    between atoms: _392  and  _394
REMARK  142  A    between atoms: _394  and  _395
REMARK  143  A    between atoms: _394  and  _397
REMARK  144  A    between atoms: _397  and  _398
REMARK  145  A    between atoms: _403  and  _405
REMARK  146  A    between atoms: _405  and  _406
REMARK  147  A    between atoms: _405  and  _408
REMARK  148  A    between atoms: _408  and  _409
REMARK  149  A    between atoms: _409  and  _410
REMARK  150  A    between atoms: _410  and  _411
REMARK                            x       y       z     vdW  Elec       q    Type
REMARK                         _______ _______ _______ _____ _____    ______ ____
ROOT
ATOM      1  O   HOH     1      -0.968   1.394  11.568  0.00  0.00    +0.000 OA
ENDROOT
TORSDOF 0
REMARK  Name = ../refined-set-2016/3mzc/3mzc_pocket.pdb
REMARK  150 active torsions:
REMARK  status: ('A' for Active; 'I' for Inactive)
REMARK    1  A    between atoms: _1  and  _3
REMARK    2  A    between atoms: _3  and  _4
REMARK    3  A    between atoms: _3  and  _6
REMARK    4  A    between atoms: _6  and  _7
REMARK    5  A    between atoms: _17  and  _19
REMARK    6  A    between atoms: _19  and  _20
REMARK    7  A    between atoms: _19  and  _22
REMARK    8  A    between atoms: _22  and  _23
REMARK    9  A    between atoms: _28  and  _29
REMARK   10  A    between atoms: _31  and  _33
REMARK   11  A    between atoms: _33  and  _34
REMARK   12  A    between atoms: _33  and  _36
REMARK   13  A    between atoms: _36  and  _37
REMARK   14  A    between atoms: _40  and  _41
REMARK   15  A    between atoms: _46  and  _48
REMARK   16  A    between atoms: _48  and  _49
REMARK   17  A    between atoms: _48  and  _51
REMARK   18  A    between atoms: _51  and  _52
REMARK   19  A    between atoms: _57  and  _59
REMARK   20  A    between atoms: _59  and  _60
REMARK   21  A    between atoms: _63  and  _65
REMARK   22  A    between atoms: _65  and  _66
REMARK   23  A    between atoms: _65  and  _68
REMARK   24  A    between atoms: _68  and  _69
REMARK   25  A    between atoms: _74  and  _76
REMARK   26  A    between atoms: _76  and  _77
REMARK   27  A    between atoms: _76  and  _79
REMARK   28  A    between atoms: _79  and  _80
REMARK   29  A    between atoms: _83  and  _85
REMARK   30  A    between atoms: _85  and  _86
REMARK   31  A    between atoms: _85  and  _88
REMARK   32  A    between atoms: _88  and  _89
REMARK   33  A    between atoms: _89  and  _90
REMARK   34  A    between atoms: _95  and  _97
REMARK   35  A    between atoms: _97  and  _98
REMARK   36  A    between atoms: _97  and  _100
REMARK   37  A    between atoms: _100  and  _101
REMARK   38  A    between atoms: _107  and  _109
REMARK   39  A    between atoms: _120  and  _123
REMARK   40  A    between atoms: _123  and  _124
REMARK   41  A    between atoms: _132  and  _133
REMARK   42  A    between atoms: _141  and  _143
REMARK   43  A    between atoms: _143  and  _144
REMARK   44  A    between atoms: _143  and  _146
REMARK   45  A    between atoms: _146  and  _147
REMARK   46  A    between atoms: _147  and  _148
REMARK   47  A    between atoms: _151  and  _153
REMARK   48  A    between atoms: _153  and  _154
REMARK   49  A    between atoms: _153  and  _156
REMARK   50  A    between atoms: _156  and  _157
REMARK   51  A    between atoms: _162  and  _164
REMARK   52  A    between atoms: _164  and  _165
REMARK   53  A    between atoms: _164  and  _167
REMARK   54  A    between atoms: _167  and  _168
REMARK   55  A    between atoms: _168  and  _169
REMARK   56  A    between atoms: _172  and  _174
REMARK   57  A    between atoms: _174  and  _175
REMARK   58  A    between atoms: _174  and  _177
REMARK   59  A    between atoms: _177  and  _178
REMARK   60  A    between atoms: _181  and  _183
REMARK   61  A    between atoms: _183  and  _184
REMARK   62  A    between atoms: _183  and  _186
REMARK   63  A    between atoms: _186  and  _187
REMARK   64  A    between atoms: _188  and  ZN_420
REMARK   65  A    between atoms: _192  and  _194
REMARK   66  A    between atoms: _194  and  _195
REMARK   67  A    between atoms: _194  and  _197
REMARK   68  A    between atoms: _197  and  _198
REMARK   69  A    between atoms: _201  and  _203
REMARK   70  A    between atoms: _203  and  _204
REMARK   71  A    between atoms: _203  and  _206
REMARK   72  A    between atoms: _209  and  _211
REMARK   73  A    between atoms: _211  and  _212
REMARK   74  A    between atoms: _211  and  _214
REMARK   75  A    between atoms: _214  and  _215
REMARK   76  A    between atoms: _220  and  _222
REMARK   77  A    between atoms: _222  and  _223
REMARK   78  A    between atoms: _222  and  _225
REMARK   79  A    between atoms: _225  and  _226
REMARK   80  A    between atoms: _232  and  _234
REMARK   81  A    between atoms: _234  and  _235
REMARK   82  A    between atoms: _237  and  _239
REMARK   83  A    between atoms: _239  and  _240
REMARK   84  A    between atoms: _239  and  _242
REMARK   85  A    between atoms: _245  and  _247
REMARK   86  A    between atoms: _247  and  _248
REMARK   87  A    between atoms: _247  and  _250
REMARK   88  A    between atoms: _250  and  _251
REMARK   89  A    between atoms: _251  and  _252
REMARK   90  A    between atoms: _257  and  _259
REMARK   91  A    between atoms: _259  and  _260
REMARK   92  A    between atoms: _259  and  _262
REMARK   93  A    between atoms: _262  and  _263
REMARK   94  A    between atoms: _266  and  _268
REMARK   95  A    between atoms: _268  and  _269
REMARK   96  A    between atoms: _272  and  _274
REMARK   97  A    between atoms: _274  and  _275
REMARK   98  A    between atoms: _274  and  _277
REMARK   99  A    between atoms: _280  and  _282
REMARK  100  A    between atoms: _282  and  _283
REMARK  101  A    between atoms: _282  and  _285
REMARK  102  A    between atoms: _285  and  _286
REMARK  103  A    between atoms: _289  and  _291
REMARK  104  A    between atoms: _291  and  _292
REMARK  105  A    between atoms: _294  and  _296
REMARK  106  A    between atoms: _296  and  _297
REMARK  107  A    between atoms: _296  and  _299
REMARK  108  A    between atoms: _299  and  _300
REMARK  109  A    between atoms: _302  and  _304
REMARK  110  A    between atoms: _304  and  _305
REMARK  111  A    between atoms: _304  and  _307
REMARK  112  A    between atoms: _307  and  _308
REMARK  113  A    between atoms: _311  and  _313
REMARK  114  A    between atoms: _313  and  _314
REMARK  115  A    between atoms: _313  and  _316
REMARK  116  A    between atoms: _316  and  _317
REMARK  117  A    between atoms: _320  and  _322
REMARK  118  A    between atoms: _322  and  _323
REMARK  119  A    between atoms: _322  and  _325
REMARK  120  A    between atoms: _325  and  _326
REMARK  121  A    between atoms: _330  and  _331
REMARK  122  A    between atoms: _337  and  _338
REMARK  123  A    between atoms: _343  and  _345
REMARK  124  A    between atoms: _345  and  _346
REMARK  125  A    between atoms: _345  and  _348
REMARK  126  A    between atoms: _348  and  _349
REMARK  127  A    between atoms: _352  and  _354
REMARK  128  A    between atoms: _354  and  _355
REMARK  129  A    between atoms: _354  and  _357
REMARK  130  A    between atoms: _357  and  _358
REMARK  131  A    between atoms: _361  and  _363
REMARK  132  A    between atoms: _363  and  _364
REMARK  133  A    between atoms: _363  and  _366
REMARK  134  A    between atoms: _368  and  _370
REMARK  135  A    between atoms: _370  and  _371
REMARK  136  A    between atoms: _370  and  _373
REMARK  137  A    between atoms: _376  and  _378
REMARK  138  A    between atoms: _378  and  _379
REMARK  139  A    between atoms: _378  and  _381
REMARK  140  A    between atoms: _381  and  _382
REMARK  141  A    between atoms: _392  and  _394
REMARK  142  A    between atoms: _394  and  _395
REMARK  143  A    between atoms: _394  and  _397
REMARK  144  A    between atoms: _397  and  _398
REMARK  145  A    between atoms: _403  and  _405
REMARK  146  A    between atoms: _405  and  _406
REMARK  147  A    between atoms: _405  and  _408
REMARK  148  A    between atoms: _408  and  _409
REMARK  149  A    between atoms: _409  and  _410
REMARK  150  A    between atoms: _410  and  _411
REMARK                            x       y       z     vdW  Elec       q    Type
REMARK                         _______ _______ _______ _____ _____    ______ ____
ROOT
ATOM      1  O   HOH     1      -0.499   3.701  10.374  0.00  0.00    +0.000 OA
ENDROOT
TORSDOF 0
REMARK  Name = ../refined-set-2016/3mzc/3mzc_pocket.pdb
REMARK  150 active torsions:
REMARK  status: ('A' for Active; 'I' for Inactive)
REMARK    1  A    between atoms: _1  and  _3
REMARK    2  A    between atoms: _3  and  _4
REMARK    3  A    between atoms: _3  and  _6
REMARK    4  A    between atoms: _6  and  _7
REMARK    5  A    between atoms: _17  and  _19
REMARK    6  A    between atoms: _19  and  _20
REMARK    7  A    between atoms: _19  and  _22
REMARK    8  A    between atoms: _22  and  _23
REMARK    9  A    between atoms: _28  and  _29
REMARK   10  A    between atoms: _31  and  _33
REMARK   11  A    between atoms: _33  and  _34
REMARK   12  A    between atoms: _33  and  _36
REMARK   13  A    between atoms: _36  and  _37
REMARK   14  A    between atoms: _40  and  _41
REMARK   15  A    between atoms: _46  and  _48
REMARK   16  A    between atoms: _48  and  _49
REMARK   17  A    between atoms: _48  and  _51
REMARK   18  A    between atoms: _51  and  _52
REMARK   19  A    between atoms: _57  and  _59
REMARK   20  A    between atoms: _59  and  _60
REMARK   21  A    between atoms: _63  and  _65
REMARK   22  A    between atoms: _65  and  _66
REMARK   23  A    between atoms: _65  and  _68
REMARK   24  A    between atoms: _68  and  _69
REMARK   25  A    between atoms: _74  and  _76
REMARK   26  A    between atoms: _76  and  _77
REMARK   27  A    between atoms: _76  and  _79
REMARK   28  A    between atoms: _79  and  _80
REMARK   29  A    between atoms: _83  and  _85
REMARK   30  A    between atoms: _85  and  _86
REMARK   31  A    between atoms: _85  and  _88
REMARK   32  A    between atoms: _88  and  _89
REMARK   33  A    between atoms: _89  and  _90
REMARK   34  A    between atoms: _95  and  _97
REMARK   35  A    between atoms: _97  and  _98
REMARK   36  A    between atoms: _97  and  _100
REMARK   37  A    between atoms: _100  and  _101
REMARK   38  A    between atoms: _107  and  _109
REMARK   39  A    between atoms: _120  and  _123
REMARK   40  A    between atoms: _123  and  _124
REMARK   41  A    between atoms: _132  and  _133
REMARK   42  A    between atoms: _141  and  _143
REMARK   43  A    between atoms: _143  and  _144
REMARK   44  A    between atoms: _143  and  _146
REMARK   45  A    between atoms: _146  and  _147
REMARK   46  A    between atoms: _147  and  _148
REMARK   47  A    between atoms: _151  and  _153
REMARK   48  A    between atoms: _153  and  _154
REMARK   49  A    between atoms: _153  and  _156
REMARK   50  A    between atoms: _156  and  _157
REMARK   51  A    between atoms: _162  and  _164
REMARK   52  A    between atoms: _164  and  _165
REMARK   53  A    between atoms: _164  and  _167
REMARK   54  A    between atoms: _167  and  _168
REMARK   55  A    between atoms: _168  and  _169
REMARK   56  A    between atoms: _172  and  _174
REMARK   57  A    between atoms: _174  and  _175
REMARK   58  A    between atoms: _174  and  _177
REMARK   59  A    between atoms: _177  and  _178
REMARK   60  A    between atoms: _181  and  _183
REMARK   61  A    between atoms: _183  and  _184
REMARK   62  A    between atoms: _183  and  _186
REMARK   63  A    between atoms: _186  and  _187
REMARK   64  A    between atoms: _188  and  ZN_420
REMARK   65  A    between atoms: _192  and  _194
REMARK   66  A    between atoms: _194  and  _195
REMARK   67  A    between atoms: _194  and  _197
REMARK   68  A    between atoms: _197  and  _198
REMARK   69  A    between atoms: _201  and  _203
REMARK   70  A    between atoms: _203  and  _204
REMARK   71  A    between atoms: _203  and  _206
REMARK   72  A    between atoms: _209  and  _211
REMARK   73  A    between atoms: _211  and  _212
REMARK   74  A    between atoms: _211  and  _214
REMARK   75  A    between atoms: _214  and  _215
REMARK   76  A    between atoms: _220  and  _222
REMARK   77  A    between atoms: _222  and  _223
REMARK   78  A    between atoms: _222  and  _225
REMARK   79  A    between atoms: _225  and  _226
REMARK   80  A    between atoms: _232  and  _234
REMARK   81  A    between atoms: _234  and  _235
REMARK   82  A    between atoms: _237  and  _239
REMARK   83  A    between atoms: _239  and  _240
REMARK   84  A    between atoms: _239  and  _242
REMARK   85  A    between atoms: _245  and  _247
REMARK   86  A    between atoms: _247  and  _248
REMARK   87  A    between atoms: _247  and  _250
REMARK   88  A    between atoms: _250  and  _251
REMARK   89  A    between atoms: _251  and  _252
REMARK   90  A    between atoms: _257  and  _259
REMARK   91  A    between atoms: _259  and  _260
REMARK   92  A    between atoms: _259  and  _262
REMARK   93  A    between atoms: _262  and  _263
REMARK   94  A    between atoms: _266  and  _268
REMARK   95  A    between atoms: _268  and  _269
REMARK   96  A    between atoms: _272  and  _274
REMARK   97  A    between atoms: _274  and  _275
REMARK   98  A    between atoms: _274  and  _277
REMARK   99  A    between atoms: _280  and  _282
REMARK  100  A    between atoms: _282  and  _283
REMARK  101  A    between atoms: _282  and  _285
REMARK  102  A    between atoms: _285  and  _286
REMARK  103  A    between atoms: _289  and  _291
REMARK  104  A    between atoms: _291  and  _292
REMARK  105  A    between atoms: _294  and  _296
REMARK  106  A    between atoms: _296  and  _297
REMARK  107  A    between atoms: _296  and  _299
REMARK  108  A    between atoms: _299  and  _300
REMARK  109  A    between atoms: _302  and  _304
REMARK  110  A    between atoms: _304  and  _305
REMARK  111  A    between atoms: _304  and  _307
REMARK  112  A    between atoms: _307  and  _308
REMARK  113  A    between atoms: _311  and  _313
REMARK  114  A    between atoms: _313  and  _314
REMARK  115  A    between atoms: _313  and  _316
REMARK  116  A    between atoms: _316  and  _317
REMARK  117  A    between atoms: _320  and  _322
REMARK  118  A    between atoms: _322  and  _323
REMARK  119  A    between atoms: _322  and  _325
REMARK  120  A    between atoms: _325  and  _326
REMARK  121  A    between atoms: _330  and  _331
REMARK  122  A    between atoms: _337  and  _338
REMARK  123  A    between atoms: _343  and  _345
REMARK  124  A    between atoms: _345  and  _346
REMARK  125  A    between atoms: _345  and  _348
REMARK  126  A    between atoms: _348  and  _349
REMARK  127  A    between atoms: _352  and  _354
REMARK  128  A    between atoms: _354  and  _355
REMARK  129  A    between atoms: _354  and  _357
REMARK  130  A    between atoms: _357  and  _358
REMARK  131  A    between atoms: _361  and  _363
REMARK  132  A    between atoms: _363  and  _364
REMARK  133  A    between atoms: _363  and  _366
REMARK  134  A    between atoms: _368  and  _370
REMARK  135  A    between atoms: _370  and  _371
REMARK  136  A    between atoms: _370  and  _373
REMARK  137  A    between atoms: _376  and  _378
REMARK  138  A    between atoms: _378  and  _379
REMARK  139  A    between atoms: _378  and  _381
REMARK  140  A    between atoms: _381  and  _382
REMARK  141  A    between atoms: _392  and  _394
REMARK  142  A    between atoms: _394  and  _395
REMARK  143  A    between atoms: _394  and  _397
REMARK  144  A    between atoms: _397  and  _398
REMARK  145  A    between atoms: _403  and  _405
REMARK  146  A    between atoms: _405  and  _406
REMARK  147  A    between atoms: _405  and  _408
REMARK  148  A    between atoms: _408  and  _409
REMARK  149  A    between atoms: _409  and  _410
REMARK  150  A    between atoms: _410  and  _411
REMARK                            x       y       z     vdW  Elec       q    Type
REMARK                         _______ _______ _______ _____ _____    ______ ____
ROOT
ATOM      1  O   HOH     1      -4.043   4.971   7.166  0.00  0.00    +0.000 OA
ENDROOT
TORSDOF 0
REMARK  Name = ../refined-set-2016/3mzc/3mzc_pocket.pdb
REMARK  150 active torsions:
REMARK  status: ('A' for Active; 'I' for Inactive)
REMARK    1  A    between atoms: _1  and  _3
REMARK    2  A    between atoms: _3  and  _4
REMARK    3  A    between atoms: _3  and  _6
REMARK    4  A    between atoms: _6  and  _7
REMARK    5  A    between atoms: _17  and  _19
REMARK    6  A    between atoms: _19  and  _20
REMARK    7  A    between atoms: _19  and  _22
REMARK    8  A    between atoms: _22  and  _23
REMARK    9  A    between atoms: _28  and  _29
REMARK   10  A    between atoms: _31  and  _33
REMARK   11  A    between atoms: _33  and  _34
REMARK   12  A    between atoms: _33  and  _36
REMARK   13  A    between atoms: _36  and  _37
REMARK   14  A    between atoms: _40  and  _41
REMARK   15  A    between atoms: _46  and  _48
REMARK   16  A    between atoms: _48  and  _49
REMARK   17  A    between atoms: _48  and  _51
REMARK   18  A    between atoms: _51  and  _52
REMARK   19  A    between atoms: _57  and  _59
REMARK   20  A    between atoms: _59  and  _60
REMARK   21  A    between atoms: _63  and  _65
REMARK   22  A    between atoms: _65  and  _66
REMARK   23  A    between atoms: _65  and  _68
REMARK   24  A    between atoms: _68  and  _69
REMARK   25  A    between atoms: _74  and  _76
REMARK   26  A    between atoms: _76  and  _77
REMARK   27  A    between atoms: _76  and  _79
REMARK   28  A    between atoms: _79  and  _80
REMARK   29  A    between atoms: _83  and  _85
REMARK   30  A    between atoms: _85  and  _86
REMARK   31  A    between atoms: _85  and  _88
REMARK   32  A    between atoms: _88  and  _89
REMARK   33  A    between atoms: _89  and  _90
REMARK   34  A    between atoms: _95  and  _97
REMARK   35  A    between atoms: _97  and  _98
REMARK   36  A    between atoms: _97  and  _100
REMARK   37  A    between atoms: _100  and  _101
REMARK   38  A    between atoms: _107  and  _109
REMARK   39  A    between atoms: _120  and  _123
REMARK   40  A    between atoms: _123  and  _124
REMARK   41  A    between atoms: _132  and  _133
REMARK   42  A    between atoms: _141  and  _143
REMARK   43  A    between atoms: _143  and  _144
REMARK   44  A    between atoms: _143  and  _146
REMARK   45  A    between atoms: _146  and  _147
REMARK   46  A    between atoms: _147  and  _148
REMARK   47  A    between atoms: _151  and  _153
REMARK   48  A    between atoms: _153  and  _154
REMARK   49  A    between atoms: _153  and  _156
REMARK   50  A    between atoms: _156  and  _157
REMARK   51  A    between atoms: _162  and  _164
REMARK   52  A    between atoms: _164  and  _165
REMARK   53  A    between atoms: _164  and  _167
REMARK   54  A    between atoms: _167  and  _168
REMARK   55  A    between atoms: _168  and  _169
REMARK   56  A    between atoms: _172  and  _174
REMARK   57  A    between atoms: _174  and  _175
REMARK   58  A    between atoms: _174  and  _177
REMARK   59  A    between atoms: _177  and  _178
REMARK   60  A    between atoms: _181  and  _183
REMARK   61  A    between atoms: _183  and  _184
REMARK   62  A    between atoms: _183  and  _186
REMARK   63  A    between atoms: _186  and  _187
REMARK   64  A    between atoms: _188  and  ZN_420
REMARK   65  A    between atoms: _192  and  _194
REMARK   66  A    between atoms: _194  and  _195
REMARK   67  A    between atoms: _194  and  _197
REMARK   68  A    between atoms: _197  and  _198
REMARK   69  A    between atoms: _201  and  _203
REMARK   70  A    between atoms: _203  and  _204
REMARK   71  A    between atoms: _203  and  _206
REMARK   72  A    between atoms: _209  and  _211
REMARK   73  A    between atoms: _211  and  _212
REMARK   74  A    between atoms: _211  and  _214
REMARK   75  A    between atoms: _214  and  _215
REMARK   76  A    between atoms: _220  and  _222
REMARK   77  A    between atoms: _222  and  _223
REMARK   78  A    between atoms: _222  and  _225
REMARK   79  A    between atoms: _225  and  _226
REMARK   80  A    between atoms: _232  and  _234
REMARK   81  A    between atoms: _234  and  _235
REMARK   82  A    between atoms: _237  and  _239
REMARK   83  A    between atoms: _239  and  _240
REMARK   84  A    between atoms: _239  and  _242
REMARK   85  A    between atoms: _245  and  _247
REMARK   86  A    between atoms: _247  and  _248
REMARK   87  A    between atoms: _247  and  _250
REMARK   88  A    between atoms: _250  and  _251
REMARK   89  A    between atoms: _251  and  _252
REMARK   90  A    between atoms: _257  and  _259
REMARK   91  A    between atoms: _259  and  _260
REMARK   92  A    between atoms: _259  and  _262
REMARK   93  A    between atoms: _262  and  _263
REMARK   94  A    between atoms: _266  and  _268
REMARK   95  A    between atoms: _268  and  _269
REMARK   96  A    between atoms: _272  and  _274
REMARK   97  A    between atoms: _274  and  _275
REMARK   98  A    between atoms: _274  and  _277
REMARK   99  A    between atoms: _280  and  _282
REMARK  100  A    between atoms: _282  and  _283
REMARK  101  A    between atoms: _282  and  _285
REMARK  102  A    between atoms: _285  and  _286
REMARK  103  A    between atoms: _289  and  _291
REMARK  104  A    between atoms: _291  and  _292
REMARK  105  A    between atoms: _294  and  _296
REMARK  106  A    between atoms: _296  and  _297
REMARK  107  A    between atoms: _296  and  _299
REMARK  108  A    between atoms: _299  and  _300
REMARK  109  A    between atoms: _302  and  _304
REMARK  110  A    between atoms: _304  and  _305
REMARK  111  A    between atoms: _304  and  _307
REMARK  112  A    between atoms: _307  and  _308
REMARK  113  A    between atoms: _311  and  _313
REMARK  114  A    between atoms: _313  and  _314
REMARK  115  A    between atoms: _313  and  _316
REMARK  116  A    between atoms: _316  and  _317
REMARK  117  A    between atoms: _320  and  _322
REMARK  118  A    between atoms: _322  and  _323
REMARK  119  A    between atoms: _322  and  _325
REMARK  120  A    between atoms: _325  and  _326
REMARK  121  A    between atoms: _330  and  _331
REMARK  122  A    between atoms: _337  and  _338
REMARK  123  A    between atoms: _343  and  _345
REMARK  124  A    between atoms: _345  and  _346
REMARK  125  A    between atoms: _345  and  _348
REMARK  126  A    between atoms: _348  and  _349
REMARK  127  A    between atoms: _352  and  _354
REMARK  128  A    between atoms: _354  and  _355
REMARK  129  A    between atoms: _354  and  _357
REMARK  130  A    between atoms: _357  and  _358
REMARK  131  A    between atoms: _361  and  _363
REMARK  132  A    between atoms: _363  and  _364
REMARK  133  A    between atoms: _363  and  _366
REMARK  134  A    between atoms: _368  and  _370
REMARK  135  A    between atoms: _370  and  _371
REMARK  136  A    between atoms: _370  and  _373
REMARK  137  A    between atoms: _376  and  _378
REMARK  138  A    between atoms: _378  and  _379
REMARK  139  A    between atoms: _378  and  _381
REMARK  140  A    between atoms: _381  and  _382
REMARK  141  A    between atoms: _392  and  _394
REMARK  142  A    between atoms: _394  and  _395
REMARK  143  A    between atoms: _394  and  _397
REMARK  144  A    between atoms: _397  and  _398
REMARK  145  A    between atoms: _403  and  _405
REMARK  146  A    between atoms: _405  and  _406
REMARK  147  A    between atoms: _405  and  _408
REMARK  148  A    between atoms: _408  and  _409
REMARK  149  A    between atoms: _409  and  _410
REMARK  150  A    between atoms: _410  and  _411
REMARK                            x       y       z     vdW  Elec       q    Type
REMARK                         _______ _______ _______ _____ _____    ______ ____
ROOT
ATOM      1  O   HOH     1      -3.284   5.157   9.785  0.00  0.00    +0.000 OA
ENDROOT
TORSDOF 0
REMARK  Name = ../refined-set-2016/3mzc/3mzc_pocket.pdb
REMARK  150 active torsions:
REMARK  status: ('A' for Active; 'I' for Inactive)
REMARK    1  A    between atoms: _1  and  _3
REMARK    2  A    between atoms: _3  and  _4
REMARK    3  A    between atoms: _3  and  _6
REMARK    4  A    between atoms: _6  and  _7
REMARK    5  A    between atoms: _17  and  _19
REMARK    6  A    between atoms: _19  and  _20
REMARK    7  A    between atoms: _19  and  _22
REMARK    8  A    between atoms: _22  and  _23
REMARK    9  A    between atoms: _28  and  _29
REMARK   10  A    between atoms: _31  and  _33
REMARK   11  A    between atoms: _33  and  _34
REMARK   12  A    between atoms: _33  and  _36
REMARK   13  A    between atoms: _36  and  _37
REMARK   14  A    between atoms: _40  and  _41
REMARK   15  A    between atoms: _46  and  _48
REMARK   16  A    between atoms: _48  and  _49
REMARK   17  A    between atoms: _48  and  _51
REMARK   18  A    between atoms: _51  and  _52
REMARK   19  A    between atoms: _57  and  _59
REMARK   20  A    between atoms: _59  and  _60
REMARK   21  A    between atoms: _63  and  _65
REMARK   22  A    between atoms: _65  and  _66
REMARK   23  A    between atoms: _65  and  _68
REMARK   24  A    between atoms: _68  and  _69
REMARK   25  A    between atoms: _74  and  _76
REMARK   26  A    between atoms: _76  and  _77
REMARK   27  A    between atoms: _76  and  _79
REMARK   28  A    between atoms: _79  and  _80
REMARK   29  A    between atoms: _83  and  _85
REMARK   30  A    between atoms: _85  and  _86
REMARK   31  A    between atoms: _85  and  _88
REMARK   32  A    between atoms: _88  and  _89
REMARK   33  A    between atoms: _89  and  _90
REMARK   34  A    between atoms: _95  and  _97
REMARK   35  A    between atoms: _97  and  _98
REMARK   36  A    between atoms: _97  and  _100
REMARK   37  A    between atoms: _100  and  _101
REMARK   38  A    between atoms: _107  and  _109
REMARK   39  A    between atoms: _120  and  _123
REMARK   40  A    between atoms: _123  and  _124
REMARK   41  A    between atoms: _132  and  _133
REMARK   42  A    between atoms: _141  and  _143
REMARK   43  A    between atoms: _143  and  _144
REMARK   44  A    between atoms: _143  and  _146
REMARK   45  A    between atoms: _146  and  _147
REMARK   46  A    between atoms: _147  and  _148
REMARK   47  A    between atoms: _151  and  _153
REMARK   48  A    between atoms: _153  and  _154
REMARK   49  A    between atoms: _153  and  _156
REMARK   50  A    between atoms: _156  and  _157
REMARK   51  A    between atoms: _162  and  _164
REMARK   52  A    between atoms: _164  and  _165
REMARK   53  A    between atoms: _164  and  _167
REMARK   54  A    between atoms: _167  and  _168
REMARK   55  A    between atoms: _168  and  _169
REMARK   56  A    between atoms: _172  and  _174
REMARK   57  A    between atoms: _174  and  _175
REMARK   58  A    between atoms: _174  and  _177
REMARK   59  A    between atoms: _177  and  _178
REMARK   60  A    between atoms: _181  and  _183
REMARK   61  A    between atoms: _183  and  _184
REMARK   62  A    between atoms: _183  and  _186
REMARK   63  A    between atoms: _186  and  _187
REMARK   64  A    between atoms: _188  and  ZN_420
REMARK   65  A    between atoms: _192  and  _194
REMARK   66  A    between atoms: _194  and  _195
REMARK   67  A    between atoms: _194  and  _197
REMARK   68  A    between atoms: _197  and  _198
REMARK   69  A    between atoms: _201  and  _203
REMARK   70  A    between atoms: _203  and  _204
REMARK   71  A    between atoms: _203  and  _206
REMARK   72  A    between atoms: _209  and  _211
REMARK   73  A    between atoms: _211  and  _212
REMARK   74  A    between atoms: _211  and  _214
REMARK   75  A    between atoms: _214  and  _215
REMARK   76  A    between atoms: _220  and  _222
REMARK   77  A    between atoms: _222  and  _223
REMARK   78  A    between atoms: _222  and  _225
REMARK   79  A    between atoms: _225  and  _226
REMARK   80  A    between atoms: _232  and  _234
REMARK   81  A    between atoms: _234  and  _235
REMARK   82  A    between atoms: _237  and  _239
REMARK   83  A    between atoms: _239  and  _240
REMARK   84  A    between atoms: _239  and  _242
REMARK   85  A    between atoms: _245  and  _247
REMARK   86  A    between atoms: _247  and  _248
REMARK   87  A    between atoms: _247  and  _250
REMARK   88  A    between atoms: _250  and  _251
REMARK   89  A    between atoms: _251  and  _252
REMARK   90  A    between atoms: _257  and  _259
REMARK   91  A    between atoms: _259  and  _260
REMARK   92  A    between atoms: _259  and  _262
REMARK   93  A    between atoms: _262  and  _263
REMARK   94  A    between atoms: _266  and  _268
REMARK   95  A    between atoms: _268  and  _269
REMARK   96  A    between atoms: _272  and  _274
REMARK   97  A    between atoms: _274  and  _275
REMARK   98  A    between atoms: _274  and  _277
REMARK   99  A    between atoms: _280  and  _282
REMARK  100  A    between atoms: _282  and  _283
REMARK  101  A    between atoms: _282  and  _285
REMARK  102  A    between atoms: _285  and  _286
REMARK  103  A    between atoms: _289  and  _291
REMARK  104  A    between atoms: _291  and  _292
REMARK  105  A    between atoms: _294  and  _296
REMARK  106  A    between atoms: _296  and  _297
REMARK  107  A    between atoms: _296  and  _299
REMARK  108  A    between atoms: _299  and  _300
REMARK  109  A    between atoms: _302  and  _304
REMARK  110  A    between atoms: _304  and  _305
REMARK  111  A    between atoms: _304  and  _307
REMARK  112  A    between atoms: _307  and  _308
REMARK  113  A    between atoms: _311  and  _313
REMARK  114  A    between atoms: _313  and  _314
REMARK  115  A    between atoms: _313  and  _316
REMARK  116  A    between atoms: _316  and  _317
REMARK  117  A    between atoms: _320  and  _322
REMARK  118  A    between atoms: _322  and  _323
REMARK  119  A    between atoms: _322  and  _325
REMARK  120  A    between atoms: _325  and  _326
REMARK  121  A    between atoms: _330  and  _331
REMARK  122  A    between atoms: _337  and  _338
REMARK  123  A    between atoms: _343  and  _345
REMARK  124  A    between atoms: _345  and  _346
REMARK  125  A    between atoms: _345  and  _348
REMARK  126  A    between atoms: _348  and  _349
REMARK  127  A    between atoms: _352  and  _354
REMARK  128  A    between atoms: _354  and  _355
REMARK  129  A    between atoms: _354  and  _357
REMARK  130  A    between atoms: _357  and  _358
REMARK  131  A    between atoms: _361  and  _363
REMARK  132  A    between atoms: _363  and  _364
REMARK  133  A    between atoms: _363  and  _366
REMARK  134  A    between atoms: _368  and  _370
REMARK  135  A    between atoms: _370  and  _371
REMARK  136  A    between atoms: _370  and  _373
REMARK  137  A    between atoms: _376  and  _378
REMARK  138  A    between atoms: _378  and  _379
REMARK  139  A    between atoms: _378  and  _381
REMARK  140  A    between atoms: _381  and  _382
REMARK  141  A    between atoms: _392  and  _394
REMARK  142  A    between atoms: _394  and  _395
REMARK  143  A    between atoms: _394  and  _397
REMARK  144  A    between atoms: _397  and  _398
REMARK  145  A    between atoms: _403  and  _405
REMARK  146  A    between atoms: _405  and  _406
REMARK  147  A    between atoms: _405  and  _408
REMARK  148  A    between atoms: _408  and  _409
REMARK  149  A    between atoms: _409  and  _410
REMARK  150  A    between atoms: _410  and  _411
REMARK                            x       y       z     vdW  Elec       q    Type
REMARK                         _______ _______ _______ _____ _____    ______ ____
ROOT
ATOM      1  O   HOH     1       4.036   4.646  10.871  0.00  0.00    +0.000 OA
ENDROOT
TORSDOF 0
REMARK  Name = ../refined-set-2016/3mzc/3mzc_pocket.pdb
REMARK  150 active torsions:
REMARK  status: ('A' for Active; 'I' for Inactive)
REMARK    1  A    between atoms: _1  and  _3
REMARK    2  A    between atoms: _3  and  _4
REMARK    3  A    between atoms: _3  and  _6
REMARK    4  A    between atoms: _6  and  _7
REMARK    5  A    between atoms: _17  and  _19
REMARK    6  A    between atoms: _19  and  _20
REMARK    7  A    between atoms: _19  and  _22
REMARK    8  A    between atoms: _22  and  _23
REMARK    9  A    between atoms: _28  and  _29
REMARK   10  A    between atoms: _31  and  _33
REMARK   11  A    between atoms: _33  and  _34
REMARK   12  A    between atoms: _33  and  _36
REMARK   13  A    between atoms: _36  and  _37
REMARK   14  A    between atoms: _40  and  _41
REMARK   15  A    between atoms: _46  and  _48
REMARK   16  A    between atoms: _48  and  _49
REMARK   17  A    between atoms: _48  and  _51
REMARK   18  A    between atoms: _51  and  _52
REMARK   19  A    between atoms: _57  and  _59
REMARK   20  A    between atoms: _59  and  _60
REMARK   21  A    between atoms: _63  and  _65
REMARK   22  A    between atoms: _65  and  _66
REMARK   23  A    between atoms: _65  and  _68
REMARK   24  A    between atoms: _68  and  _69
REMARK   25  A    between atoms: _74  and  _76
REMARK   26  A    between atoms: _76  and  _77
REMARK   27  A    between atoms: _76  and  _79
REMARK   28  A    between atoms: _79  and  _80
REMARK   29  A    between atoms: _83  and  _85
REMARK   30  A    between atoms: _85  and  _86
REMARK   31  A    between atoms: _85  and  _88
REMARK   32  A    between atoms: _88  and  _89
REMARK   33  A    between atoms: _89  and  _90
REMARK   34  A    between atoms: _95  and  _97
REMARK   35  A    between atoms: _97  and  _98
REMARK   36  A    between atoms: _97  and  _100
REMARK   37  A    between atoms: _100  and  _101
REMARK   38  A    between atoms: _107  and  _109
REMARK   39  A    between atoms: _120  and  _123
REMARK   40  A    between atoms: _123  and  _124
REMARK   41  A    between atoms: _132  and  _133
REMARK   42  A    between atoms: _141  and  _143
REMARK   43  A    between atoms: _143  and  _144
REMARK   44  A    between atoms: _143  and  _146
REMARK   45  A    between atoms: _146  and  _147
REMARK   46  A    between atoms: _147  and  _148
REMARK   47  A    between atoms: _151  and  _153
REMARK   48  A    between atoms: _153  and  _154
REMARK   49  A    between atoms: _153  and  _156
REMARK   50  A    between atoms: _156  and  _157
REMARK   51  A    between atoms: _162  and  _164
REMARK   52  A    between atoms: _164  and  _165
REMARK   53  A    between atoms: _164  and  _167
REMARK   54  A    between atoms: _167  and  _168
REMARK   55  A    between atoms: _168  and  _169
REMARK   56  A    between atoms: _172  and  _174
REMARK   57  A    between atoms: _174  and  _175
REMARK   58  A    between atoms: _174  and  _177
REMARK   59  A    between atoms: _177  and  _178
REMARK   60  A    between atoms: _181  and  _183
REMARK   61  A    between atoms: _183  and  _184
REMARK   62  A    between atoms: _183  and  _186
REMARK   63  A    between atoms: _186  and  _187
REMARK   64  A    between atoms: _188  and  ZN_420
REMARK   65  A    between atoms: _192  and  _194
REMARK   66  A    between atoms: _194  and  _195
REMARK   67  A    between atoms: _194  and  _197
REMARK   68  A    between atoms: _197  and  _198
REMARK   69  A    between atoms: _201  and  _203
REMARK   70  A    between atoms: _203  and  _204
REMARK   71  A    between atoms: _203  and  _206
REMARK   72  A    between atoms: _209  and  _211
REMARK   73  A    between atoms: _211  and  _212
REMARK   74  A    between atoms: _211  and  _214
REMARK   75  A    between atoms: _214  and  _215
REMARK   76  A    between atoms: _220  and  _222
REMARK   77  A    between atoms: _222  and  _223
REMARK   78  A    between atoms: _222  and  _225
REMARK   79  A    between atoms: _225  and  _226
REMARK   80  A    between atoms: _232  and  _234
REMARK   81  A    between atoms: _234  and  _235
REMARK   82  A    between atoms: _237  and  _239
REMARK   83  A    between atoms: _239  and  _240
REMARK   84  A    between atoms: _239  and  _242
REMARK   85  A    between atoms: _245  and  _247
REMARK   86  A    between atoms: _247  and  _248
REMARK   87  A    between atoms: _247  and  _250
REMARK   88  A    between atoms: _250  and  _251
REMARK   89  A    between atoms: _251  and  _252
REMARK   90  A    between atoms: _257  and  _259
REMARK   91  A    between atoms: _259  and  _260
REMARK   92  A    between atoms: _259  and  _262
REMARK   93  A    between atoms: _262  and  _263
REMARK   94  A    between atoms: _266  and  _268
REMARK   95  A    between atoms: _268  and  _269
REMARK   96  A    between atoms: _272  and  _274
REMARK   97  A    between atoms: _274  and  _275
REMARK   98  A    between atoms: _274  and  _277
REMARK   99  A    between atoms: _280  and  _282
REMARK  100  A    between atoms: _282  and  _283
REMARK  101  A    between atoms: _282  and  _285
REMARK  102  A    between atoms: _285  and  _286
REMARK  103  A    between atoms: _289  and  _291
REMARK  104  A    between atoms: _291  and  _292
REMARK  105  A    between atoms: _294  and  _296
REMARK  106  A    between atoms: _296  and  _297
REMARK  107  A    between atoms: _296  and  _299
REMARK  108  A    between atoms: _299  and  _300
REMARK  109  A    between atoms: _302  and  _304
REMARK  110  A    between atoms: _304  and  _305
REMARK  111  A    between atoms: _304  and  _307
REMARK  112  A    between atoms: _307  and  _308
REMARK  113  A    between atoms: _311  and  _313
REMARK  114  A    between atoms: _313  and  _314
REMARK  115  A    between atoms: _313  and  _316
REMARK  116  A    between atoms: _316  and  _317
REMARK  117  A    between atoms: _320  and  _322
REMARK  118  A    between atoms: _322  and  _323
REMARK  119  A    between atoms: _322  and  _325
REMARK  120  A    between atoms: _325  and  _326
REMARK  121  A    between atoms: _330  and  _331
REMARK  122  A    between atoms: _337  and  _338
REMARK  123  A    between atoms: _343  and  _345
REMARK  124  A    between atoms: _345  and  _346
REMARK  125  A    between atoms: _345  and  _348
REMARK  126  A    between atoms: _348  and  _349
REMARK  127  A    between atoms: _352  and  _354
REMARK  128  A    between atoms: _354  and  _355
REMARK  129  A    between atoms: _354  and  _357
REMARK  130  A    between atoms: _357  and  _358
REMARK  131  A    between atoms: _361  and  _363
REMARK  132  A    between atoms: _363  and  _364
REMARK  133  A    between atoms: _363  and  _366
REMARK  134  A    between atoms: _368  and  _370
REMARK  135  A    between atoms: _370  and  _371
REMARK  136  A    between atoms: _370  and  _373
REMARK  137  A    between atoms: _376  and  _378
REMARK  138  A    between atoms: _378  and  _379
REMARK  139  A    between atoms: _378  and  _381
REMARK  140  A    between atoms: _381  and  _382
REMARK  141  A    between atoms: _392  and  _394
REMARK  142  A    between atoms: _394  and  _395
REMARK  143  A    between atoms: _394  and  _397
REMARK  144  A    between atoms: _397  and  _398
REMARK  145  A    between atoms: _403  and  _405
REMARK  146  A    between atoms: _405  and  _406
REMARK  147  A    between atoms: _405  and  _408
REMARK  148  A    between atoms: _408  and  _409
REMARK  149  A    between atoms: _409  and  _410
REMARK  150  A    between atoms: _410  and  _411
REMARK                            x       y       z     vdW  Elec       q    Type
REMARK                         _______ _______ _______ _____ _____    ______ ____
ROOT
ATOM      1  O   HOH     1      -0.415  14.229  16.241  0.00  0.00    +0.000 OA
ENDROOT
TORSDOF 0
REMARK  Name = ../refined-set-2016/3mzc/3mzc_pocket.pdb
REMARK  150 active torsions:
REMARK  status: ('A' for Active; 'I' for Inactive)
REMARK    1  A    between atoms: _1  and  _3
REMARK    2  A    between atoms: _3  and  _4
REMARK    3  A    between atoms: _3  and  _6
REMARK    4  A    between atoms: _6  and  _7
REMARK    5  A    between atoms: _17  and  _19
REMARK    6  A    between atoms: _19  and  _20
REMARK    7  A    between atoms: _19  and  _22
REMARK    8  A    between atoms: _22  and  _23
REMARK    9  A    between atoms: _28  and  _29
REMARK   10  A    between atoms: _31  and  _33
REMARK   11  A    between atoms: _33  and  _34
REMARK   12  A    between atoms: _33  and  _36
REMARK   13  A    between atoms: _36  and  _37
REMARK   14  A    between atoms: _40  and  _41
REMARK   15  A    between atoms: _46  and  _48
REMARK   16  A    between atoms: _48  and  _49
REMARK   17  A    between atoms: _48  and  _51
REMARK   18  A    between atoms: _51  and  _52
REMARK   19  A    between atoms: _57  and  _59
REMARK   20  A    between atoms: _59  and  _60
REMARK   21  A    between atoms: _63  and  _65
REMARK   22  A    between atoms: _65  and  _66
REMARK   23  A    between atoms: _65  and  _68
REMARK   24  A    between atoms: _68  and  _69
REMARK   25  A    between atoms: _74  and  _76
REMARK   26  A    between atoms: _76  and  _77
REMARK   27  A    between atoms: _76  and  _79
REMARK   28  A    between atoms: _79  and  _80
REMARK   29  A    between atoms: _83  and  _85
REMARK   30  A    between atoms: _85  and  _86
REMARK   31  A    between atoms: _85  and  _88
REMARK   32  A    between atoms: _88  and  _89
REMARK   33  A    between atoms: _89  and  _90
REMARK   34  A    between atoms: _95  and  _97
REMARK   35  A    between atoms: _97  and  _98
REMARK   36  A    between atoms: _97  and  _100
REMARK   37  A    between atoms: _100  and  _101
REMARK   38  A    between atoms: _107  and  _109
REMARK   39  A    between atoms: _120  and  _123
REMARK   40  A    between atoms: _123  and  _124
REMARK   41  A    between atoms: _132  and  _133
REMARK   42  A    between atoms: _141  and  _143
REMARK   43  A    between atoms: _143  and  _144
REMARK   44  A    between atoms: _143  and  _146
REMARK   45  A    between atoms: _146  and  _147
REMARK   46  A    between atoms: _147  and  _148
REMARK   47  A    between atoms: _151  and  _153
REMARK   48  A    between atoms: _153  and  _154
REMARK   49  A    between atoms: _153  and  _156
REMARK   50  A    between atoms: _156  and  _157
REMARK   51  A    between atoms: _162  and  _164
REMARK   52  A    between atoms: _164  and  _165
REMARK   53  A    between atoms: _164  and  _167
REMARK   54  A    between atoms: _167  and  _168
REMARK   55  A    between atoms: _168  and  _169
REMARK   56  A    between atoms: _172  and  _174
REMARK   57  A    between atoms: _174  and  _175
REMARK   58  A    between atoms: _174  and  _177
REMARK   59  A    between atoms: _177  and  _178
REMARK   60  A    between atoms: _181  and  _183
REMARK   61  A    between atoms: _183  and  _184
REMARK   62  A    between atoms: _183  and  _186
REMARK   63  A    between atoms: _186  and  _187
REMARK   64  A    between atoms: _188  and  ZN_420
REMARK   65  A    between atoms: _192  and  _194
REMARK   66  A    between atoms: _194  and  _195
REMARK   67  A    between atoms: _194  and  _197
REMARK   68  A    between atoms: _197  and  _198
REMARK   69  A    between atoms: _201  and  _203
REMARK   70  A    between atoms: _203  and  _204
REMARK   71  A    between atoms: _203  and  _206
REMARK   72  A    between atoms: _209  and  _211
REMARK   73  A    between atoms: _211  and  _212
REMARK   74  A    between atoms: _211  and  _214
REMARK   75  A    between atoms: _214  and  _215
REMARK   76  A    between atoms: _220  and  _222
REMARK   77  A    between atoms: _222  and  _223
REMARK   78  A    between atoms: _222  and  _225
REMARK   79  A    between atoms: _225  and  _226
REMARK   80  A    between atoms: _232  and  _234
REMARK   81  A    between atoms: _234  and  _235
REMARK   82  A    between atoms: _237  and  _239
REMARK   83  A    between atoms: _239  and  _240
REMARK   84  A    between atoms: _239  and  _242
REMARK   85  A    between atoms: _245  and  _247
REMARK   86  A    between atoms: _247  and  _248
REMARK   87  A    between atoms: _247  and  _250
REMARK   88  A    between atoms: _250  and  _251
REMARK   89  A    between atoms: _251  and  _252
REMARK   90  A    between atoms: _257  and  _259
REMARK   91  A    between atoms: _259  and  _260
REMARK   92  A    between atoms: _259  and  _262
REMARK   93  A    between atoms: _262  and  _263
REMARK   94  A    between atoms: _266  and  _268
REMARK   95  A    between atoms: _268  and  _269
REMARK   96  A    between atoms: _272  and  _274
REMARK   97  A    between atoms: _274  and  _275
REMARK   98  A    between atoms: _274  and  _277
REMARK   99  A    between atoms: _280  and  _282
REMARK  100  A    between atoms: _282  and  _283
REMARK  101  A    between atoms: _282  and  _285
REMARK  102  A    between atoms: _285  and  _286
REMARK  103  A    between atoms: _289  and  _291
REMARK  104  A    between atoms: _291  and  _292
REMARK  105  A    between atoms: _294  and  _296
REMARK  106  A    between atoms: _296  and  _297
REMARK  107  A    between atoms: _296  and  _299
REMARK  108  A    between atoms: _299  and  _300
REMARK  109  A    between atoms: _302  and  _304
REMARK  110  A    between atoms: _304  and  _305
REMARK  111  A    between atoms: _304  and  _307
REMARK  112  A    between atoms: _307  and  _308
REMARK  113  A    between atoms: _311  and  _313
REMARK  114  A    between atoms: _313  and  _314
REMARK  115  A    between atoms: _313  and  _316
REMARK  116  A    between atoms: _316  and  _317
REMARK  117  A    between atoms: _320  and  _322
REMARK  118  A    between atoms: _322  and  _323
REMARK  119  A    between atoms: _322  and  _325
REMARK  120  A    between atoms: _325  and  _326
REMARK  121  A    between atoms: _330  and  _331
REMARK  122  A    between atoms: _337  and  _338
REMARK  123  A    between atoms: _343  and  _345
REMARK  124  A    between atoms: _345  and  _346
REMARK  125  A    between atoms: _345  and  _348
REMARK  126  A    between atoms: _348  and  _349
REMARK  127  A    between atoms: _352  and  _354
REMARK  128  A    between atoms: _354  and  _355
REMARK  129  A    between atoms: _354  and  _357
REMARK  130  A    between atoms: _357  and  _358
REMARK  131  A    between atoms: _361  and  _363
REMARK  132  A    between atoms: _363  and  _364
REMARK  133  A    between atoms: _363  and  _366
REMARK  134  A    between atoms: _368  and  _370
REMARK  135  A    between atoms: _370  and  _371
REMARK  136  A    between atoms: _370  and  _373
REMARK  137  A    between atoms: _376  and  _378
REMARK  138  A    between atoms: _378  and  _379
REMARK  139  A    between atoms: _378  and  _381
REMARK  140  A    between atoms: _381  and  _382
REMARK  141  A    between atoms: _392  and  _394
REMARK  142  A    between atoms: _394  and  _395
REMARK  143  A    between atoms: _394  and  _397
REMARK  144  A    between atoms: _397  and  _398
REMARK  145  A    between atoms: _403  and  _405
REMARK  146  A    between atoms: _405  and  _406
REMARK  147  A    between atoms: _405  and  _408
REMARK  148  A    between atoms: _408  and  _409
REMARK  149  A    between atoms: _409  and  _410
REMARK  150  A    between atoms: _410  and  _411
REMARK                            x       y       z     vdW  Elec       q    Type
REMARK                         _______ _______ _______ _____ _____    ______ ____
ROOT
ATOM      1  O   HOH     1       6.685   8.382  18.066  0.00  0.00    +0.000 OA
ENDROOT
TORSDOF 0
REMARK  Name = ../refined-set-2016/3mzc/3mzc_pocket.pdb
REMARK  150 active torsions:
REMARK  status: ('A' for Active; 'I' for Inactive)
REMARK    1  A    between atoms: _1  and  _3
REMARK    2  A    between atoms: _3  and  _4
REMARK    3  A    between atoms: _3  and  _6
REMARK    4  A    between atoms: _6  and  _7
REMARK    5  A    between atoms: _17  and  _19
REMARK    6  A    between atoms: _19  and  _20
REMARK    7  A    between atoms: _19  and  _22
REMARK    8  A    between atoms: _22  and  _23
REMARK    9  A    between atoms: _28  and  _29
REMARK   10  A    between atoms: _31  and  _33
REMARK   11  A    between atoms: _33  and  _34
REMARK   12  A    between atoms: _33  and  _36
REMARK   13  A    between atoms: _36  and  _37
REMARK   14  A    between atoms: _40  and  _41
REMARK   15  A    between atoms: _46  and  _48
REMARK   16  A    between atoms: _48  and  _49
REMARK   17  A    between atoms: _48  and  _51
REMARK   18  A    between atoms: _51  and  _52
REMARK   19  A    between atoms: _57  and  _59
REMARK   20  A    between atoms: _59  and  _60
REMARK   21  A    between atoms: _63  and  _65
REMARK   22  A    between atoms: _65  and  _66
REMARK   23  A    between atoms: _65  and  _68
REMARK   24  A    between atoms: _68  and  _69
REMARK   25  A    between atoms: _74  and  _76
REMARK   26  A    between atoms: _76  and  _77
REMARK   27  A    between atoms: _76  and  _79
REMARK   28  A    between atoms: _79  and  _80
REMARK   29  A    between atoms: _83  and  _85
REMARK   30  A    between atoms: _85  and  _86
REMARK   31  A    between atoms: _85  and  _88
REMARK   32  A    between atoms: _88  and  _89
REMARK   33  A    between atoms: _89  and  _90
REMARK   34  A    between atoms: _95  and  _97
REMARK   35  A    between atoms: _97  and  _98
REMARK   36  A    between atoms: _97  and  _100
REMARK   37  A    between atoms: _100  and  _101
REMARK   38  A    between atoms: _107  and  _109
REMARK   39  A    between atoms: _120  and  _123
REMARK   40  A    between atoms: _123  and  _124
REMARK   41  A    between atoms: _132  and  _133
REMARK   42  A    between atoms: _141  and  _143
REMARK   43  A    between atoms: _143  and  _144
REMARK   44  A    between atoms: _143  and  _146
REMARK   45  A    between atoms: _146  and  _147
REMARK   46  A    between atoms: _147  and  _148
REMARK   47  A    between atoms: _151  and  _153
REMARK   48  A    between atoms: _153  and  _154
REMARK   49  A    between atoms: _153  and  _156
REMARK   50  A    between atoms: _156  and  _157
REMARK   51  A    between atoms: _162  and  _164
REMARK   52  A    between atoms: _164  and  _165
REMARK   53  A    between atoms: _164  and  _167
REMARK   54  A    between atoms: _167  and  _168
REMARK   55  A    between atoms: _168  and  _169
REMARK   56  A    between atoms: _172  and  _174
REMARK   57  A    between atoms: _174  and  _175
REMARK   58  A    between atoms: _174  and  _177
REMARK   59  A    between atoms: _177  and  _178
REMARK   60  A    between atoms: _181  and  _183
REMARK   61  A    between atoms: _183  and  _184
REMARK   62  A    between atoms: _183  and  _186
REMARK   63  A    between atoms: _186  and  _187
REMARK   64  A    between atoms: _188  and  ZN_420
REMARK   65  A    between atoms: _192  and  _194
REMARK   66  A    between atoms: _194  and  _195
REMARK   67  A    between atoms: _194  and  _197
REMARK   68  A    between atoms: _197  and  _198
REMARK   69  A    between atoms: _201  and  _203
REMARK   70  A    between atoms: _203  and  _204
REMARK   71  A    between atoms: _203  and  _206
REMARK   72  A    between atoms: _209  and  _211
REMARK   73  A    between atoms: _211  and  _212
REMARK   74  A    between atoms: _211  and  _214
REMARK   75  A    between atoms: _214  and  _215
REMARK   76  A    between atoms: _220  and  _222
REMARK   77  A    between atoms: _222  and  _223
REMARK   78  A    between atoms: _222  and  _225
REMARK   79  A    between atoms: _225  and  _226
REMARK   80  A    between atoms: _232  and  _234
REMARK   81  A    between atoms: _234  and  _235
REMARK   82  A    between atoms: _237  and  _239
REMARK   83  A    between atoms: _239  and  _240
REMARK   84  A    between atoms: _239  and  _242
REMARK   85  A    between atoms: _245  and  _247
REMARK   86  A    between atoms: _247  and  _248
REMARK   87  A    between atoms: _247  and  _250
REMARK   88  A    between atoms: _250  and  _251
REMARK   89  A    between atoms: _251  and  _252
REMARK   90  A    between atoms: _257  and  _259
REMARK   91  A    between atoms: _259  and  _260
REMARK   92  A    between atoms: _259  and  _262
REMARK   93  A    between atoms: _262  and  _263
REMARK   94  A    between atoms: _266  and  _268
REMARK   95  A    between atoms: _268  and  _269
REMARK   96  A    between atoms: _272  and  _274
REMARK   97  A    between atoms: _274  and  _275
REMARK   98  A    between atoms: _274  and  _277
REMARK   99  A    between atoms: _280  and  _282
REMARK  100  A    between atoms: _282  and  _283
REMARK  101  A    between atoms: _282  and  _285
REMARK  102  A    between atoms: _285  and  _286
REMARK  103  A    between atoms: _289  and  _291
REMARK  104  A    between atoms: _291  and  _292
REMARK  105  A    between atoms: _294  and  _296
REMARK  106  A    between atoms: _296  and  _297
REMARK  107  A    between atoms: _296  and  _299
REMARK  108  A    between atoms: _299  and  _300
REMARK  109  A    between atoms: _302  and  _304
REMARK  110  A    between atoms: _304  and  _305
REMARK  111  A    between atoms: _304  and  _307
REMARK  112  A    between atoms: _307  and  _308
REMARK  113  A    between atoms: _311  and  _313
REMARK  114  A    between atoms: _313  and  _314
REMARK  115  A    between atoms: _313  and  _316
REMARK  116  A    between atoms: _316  and  _317
REMARK  117  A    between atoms: _320  and  _322
REMARK  118  A    between atoms: _322  and  _323
REMARK  119  A    between atoms: _322  and  _325
REMARK  120  A    between atoms: _325  and  _326
REMARK  121  A    between atoms: _330  and  _331
REMARK  122  A    between atoms: _337  and  _338
REMARK  123  A    between atoms: _343  and  _345
REMARK  124  A    between atoms: _345  and  _346
REMARK  125  A    between atoms: _345  and  _348
REMARK  126  A    between atoms: _348  and  _349
REMARK  127  A    between atoms: _352  and  _354
REMARK  128  A    between atoms: _354  and  _355
REMARK  129  A    between atoms: _354  and  _357
REMARK  130  A    between atoms: _357  and  _358
REMARK  131  A    between atoms: _361  and  _363
REMARK  132  A    between atoms: _363  and  _364
REMARK  133  A    between atoms: _363  and  _366
REMARK  134  A    between atoms: _368  and  _370
REMARK  135  A    between atoms: _370  and  _371
REMARK  136  A    between atoms: _370  and  _373
REMARK  137  A    between atoms: _376  and  _378
REMARK  138  A    between atoms: _378  and  _379
REMARK  139  A    between atoms: _378  and  _381
REMARK  140  A    between atoms: _381  and  _382
REMARK  141  A    between atoms: _392  and  _394
REMARK  142  A    between atoms: _394  and  _395
REMARK  143  A    between atoms: _394  and  _397
REMARK  144  A    between atoms: _397  and  _398
REMARK  145  A    between atoms: _403  and  _405
REMARK  146  A    between atoms: _405  and  _406
REMARK  147  A    between atoms: _405  and  _408
REMARK  148  A    between atoms: _408  and  _409
REMARK  149  A    between atoms: _409  and  _410
REMARK  150  A    between atoms: _410  and  _411
REMARK                            x       y       z     vdW  Elec       q    Type
REMARK                         _______ _______ _______ _____ _____    ______ ____
ROOT
ATOM      1  O   HOH     1      -7.931   7.754   8.949  0.00  0.00    +0.000 OA
ENDROOT
TORSDOF 0
