REMARK  Name = ../refined-set-2016/2wzm/2wzm_pocket.pdb
REMARK  223 active torsions:
REMARK  status: ('A' for Active; 'I' for Inactive)
REMARK    1  A    between atoms: _1  and  _3
REMARK    2  A    between atoms: _3  and  _4
REMARK    3  A    between atoms: _6  and  _8
REMARK    4  A    between atoms: _8  and  _9
REMARK    5  A    between atoms: _8  and  _11
REMARK    6  A    between atoms: _11  and  _12
REMARK    7  A    between atoms: _15  and  _17
REMARK    8  A    between atoms: _17  and  _18
REMARK    9  A    between atoms: _20  and  _22
REMARK   10  A    between atoms: _22  and  _23
REMARK   11  A    between atoms: _22  and  _25
REMARK   12  A    between atoms: _28  and  _30
REMARK   13  A    between atoms: _30  and  _31
REMARK   14  A    between atoms: _33  and  _35
REMARK   15  A    between atoms: _35  and  _36
REMARK   16  A    between atoms: _35  and  _38
REMARK   17  A    between atoms: _38  and  _39
REMARK   18  A    between atoms: _39  and  _40
REMARK   19  A    between atoms: _43  and  _45
REMARK   20  A    between atoms: _45  and  _46
REMARK   21  A    between atoms: _45  and  _48
REMARK   22  A    between atoms: _48  and  _49
REMARK   23  A    between atoms: _52  and  _54
REMARK   24  A    between atoms: _54  and  _55
REMARK   25  A    between atoms: _54  and  _57
REMARK   26  A    between atoms: _57  and  _58
REMARK   27  A    between atoms: _58  and  _59
REMARK   28  A    between atoms: _62  and  _64
REMARK   29  A    between atoms: _64  and  _65
REMARK   30  A    between atoms: _64  and  _67
REMARK   31  A    between atoms: _67  and  _68
REMARK   32  A    between atoms: _68  and  _69
REMARK   33  A    between atoms: _69  and  _70
REMARK   34  A    between atoms: _79  and  _81
REMARK   35  A    between atoms: _81  and  _82
REMARK   36  A    between atoms: _81  and  _84
REMARK   37  A    between atoms: _84  and  _85
REMARK   38  A    between atoms: _87  and  _89
REMARK   39  A    between atoms: _89  and  _90
REMARK   40  A    between atoms: _89  and  _92
REMARK   41  A    between atoms: _92  and  _93
REMARK   42  A    between atoms: _98  and  _99
REMARK   43  A    between atoms: _101  and  _103
REMARK   44  A    between atoms: _103  and  _104
REMARK   45  A    between atoms: _103  and  _106
REMARK   46  A    between atoms: _106  and  _107
REMARK   47  A    between atoms: _110  and  _112
REMARK   48  A    between atoms: _112  and  _113
REMARK   49  A    between atoms: _112  and  _115
REMARK   50  A    between atoms: _115  and  _116
REMARK   51  A    between atoms: _119  and  _121
REMARK   52  A    between atoms: _121  and  _122
REMARK   53  A    between atoms: _121  and  _124
REMARK   54  A    between atoms: _124  and  _125
REMARK   55  A    between atoms: _130  and  _131
REMARK   56  A    between atoms: _133  and  _135
REMARK   57  A    between atoms: _135  and  _136
REMARK   58  A    between atoms: _135  and  _138
REMARK   59  A    between atoms: _138  and  _139
REMARK   60  A    between atoms: _144  and  _146
REMARK   61  A    between atoms: _146  and  _147
REMARK   62  A    between atoms: _146  and  _149
REMARK   63  A    between atoms: _149  and  _150
REMARK   64  A    between atoms: _150  and  _151
REMARK   65  A    between atoms: _151  and  _152
REMARK   66  A    between atoms: _152  and  _153
REMARK   67  A    between atoms: _157  and  _159
REMARK   68  A    between atoms: _159  and  _160
REMARK   69  A    between atoms: _159  and  _162
REMARK   70  A    between atoms: _162  and  _163
REMARK   71  A    between atoms: _168  and  _170
REMARK   72  A    between atoms: _170  and  _171
REMARK   73  A    between atoms: _170  and  _173
REMARK   74  A    between atoms: _173  and  _174
REMARK   75  A    between atoms: _179  and  _181
REMARK   76  A    between atoms: _181  and  _182
REMARK   77  A    between atoms: _181  and  _184
REMARK   78  A    between atoms: _184  and  _185
REMARK   79  A    between atoms: _185  and  _186
REMARK   80  A    between atoms: _191  and  _193
REMARK   81  A    between atoms: _193  and  _194
REMARK   82  A    between atoms: _193  and  _196
REMARK   83  A    between atoms: _196  and  _197
REMARK   84  A    between atoms: _200  and  _202
REMARK   85  A    between atoms: _202  and  _203
REMARK   86  A    between atoms: _202  and  _205
REMARK   87  A    between atoms: _205  and  _206
REMARK   88  A    between atoms: _206  and  _207
REMARK   89  A    between atoms: _210  and  _212
REMARK   90  A    between atoms: _212  and  _213
REMARK   91  A    between atoms: _212  and  _215
REMARK   92  A    between atoms: _215  and  _216
REMARK   93  A    between atoms: _219  and  _221
REMARK   94  A    between atoms: _221  and  _222
REMARK   95  A    between atoms: _221  and  _224
REMARK   96  A    between atoms: _224  and  _225
REMARK   97  A    between atoms: _230  and  _232
REMARK   98  A    between atoms: _232  and  _233
REMARK   99  A    between atoms: _236  and  _238
REMARK  100  A    between atoms: _238  and  _239
REMARK  101  A    between atoms: _238  and  _241
REMARK  102  A    between atoms: _241  and  _242
REMARK  103  A    between atoms: _247  and  _248
REMARK  104  A    between atoms: _250  and  _252
REMARK  105  A    between atoms: _252  and  _253
REMARK  106  A    between atoms: _256  and  _257
REMARK  107  A    between atoms: _262  and  _264
REMARK  108  A    between atoms: _264  and  _265
REMARK  109  A    between atoms: _264  and  _267
REMARK  110  A    between atoms: _267  and  _268
REMARK  111  A    between atoms: _271  and  _273
REMARK  112  A    between atoms: _273  and  _274
REMARK  113  A    between atoms: _276  and  _278
REMARK  114  A    between atoms: _278  and  _279
REMARK  115  A    between atoms: _278  and  _281
REMARK  116  A    between atoms: _284  and  _286
REMARK  117  A    between atoms: _286  and  _287
REMARK  118  A    between atoms: _289  and  _291
REMARK  119  A    between atoms: _291  and  _292
REMARK  120  A    between atoms: _291  and  _294
REMARK  121  A    between atoms: _294  and  _295
REMARK  122  A    between atoms: _295  and  _296
REMARK  123  A    between atoms: _296  and  _297
REMARK  124  A    between atoms: _306  and  _308
REMARK  125  A    between atoms: _308  and  _309
REMARK  126  A    between atoms: _308  and  _311
REMARK  127  A    between atoms: _311  and  _312
REMARK  128  A    between atoms: _315  and  _317
REMARK  129  A    between atoms: _317  and  _318
REMARK  130  A    between atoms: _317  and  _320
REMARK  131  A    between atoms: _320  and  _321
REMARK  132  A    between atoms: _324  and  _326
REMARK  133  A    between atoms: _326  and  _327
REMARK  134  A    between atoms: _326  and  _329
REMARK  135  A    between atoms: _329  and  _330
REMARK  136  A    between atoms: _333  and  _335
REMARK  137  A    between atoms: _335  and  _336
REMARK  138  A    between atoms: _339  and  _341
REMARK  139  A    between atoms: _341  and  _342
REMARK  140  A    between atoms: _345  and  _347
REMARK  141  A    between atoms: _347  and  _348
REMARK  142  A    between atoms: _347  and  _350
REMARK  143  A    between atoms: _350  and  _351
REMARK  144  A    between atoms: _351  and  _352
REMARK  145  A    between atoms: _357  and  _359
REMARK  146  A    between atoms: _359  and  _360
REMARK  147  A    between atoms: _359  and  _362
REMARK  148  A    between atoms: _362  and  _363
REMARK  149  A    between atoms: _366  and  _368
REMARK  150  A    between atoms: _368  and  _369
REMARK  151  A    between atoms: _368  and  _371
REMARK  152  A    between atoms: _371  and  _372
REMARK  153  A    between atoms: _375  and  _377
REMARK  154  A    between atoms: _377  and  _378
REMARK  155  A    between atoms: _377  and  _380
REMARK  156  A    between atoms: _383  and  _385
REMARK  157  A    between atoms: _385  and  _386
REMARK  158  A    between atoms: _385  and  _388
REMARK  159  A    between atoms: _388  and  _389
REMARK  160  A    between atoms: _392  and  _394
REMARK  161  A    between atoms: _394  and  _395
REMARK  162  A    between atoms: _394  and  _397
REMARK  163  A    between atoms: _397  and  _398
REMARK  164  A    between atoms: _400  and  _402
REMARK  165  A    between atoms: _402  and  _403
REMARK  166  A    between atoms: _402  and  _405
REMARK  167  A    between atoms: _405  and  _406
REMARK  168  A    between atoms: _406  and  _407
REMARK  169  A    between atoms: _407  and  _408
REMARK  170  A    between atoms: _417  and  _419
REMARK  171  A    between atoms: _419  and  _420
REMARK  172  A    between atoms: _419  and  _422
REMARK  173  A    between atoms: _422  and  _423
REMARK  174  A    between atoms: _425  and  _427
REMARK  175  A    between atoms: _427  and  _428
REMARK  176  A    between atoms: _431  and  _433
REMARK  177  A    between atoms: _433  and  _434
REMARK  178  A    between atoms: _433  and  _436
REMARK  179  A    between atoms: _436  and  _437
REMARK  180  A    between atoms: _443  and  _444
REMARK  181  A    between atoms: _449  and  _451
REMARK  182  A    between atoms: _451  and  _452
REMARK  183  A    between atoms: _451  and  _454
REMARK  184  A    between atoms: _454  and  _455
REMARK  185  A    between atoms: _455  and  _456
REMARK  186  A    between atoms: _459  and  _461
REMARK  187  A    between atoms: _461  and  _462
REMARK  188  A    between atoms: _461  and  _464
REMARK  189  A    between atoms: _464  and  _465
REMARK  190  A    between atoms: _465  and  _466
REMARK  191  A    between atoms: _466  and  _467
REMARK  192  A    between atoms: _476  and  _478
REMARK  193  A    between atoms: _478  and  _479
REMARK  194  A    between atoms: _478  and  _481
REMARK  195  A    between atoms: _481  and  _482
REMARK  196  A    between atoms: _485  and  _487
REMARK  197  A    between atoms: _487  and  _488
REMARK  198  A    between atoms: _491  and  _493
REMARK  199  A    between atoms: _493  and  _494
REMARK  200  A    between atoms: _493  and  _496
REMARK  201  A    between atoms: _496  and  _497
REMARK  202  A    between atoms: _499  and  _501
REMARK  203  A    between atoms: _501  and  _502
REMARK  204  A    between atoms: _501  and  _504
REMARK  205  A    between atoms: _504  and  _505
REMARK  206  A    between atoms: _510  and  _512
REMARK  207  A    between atoms: _512  and  _513
REMARK  208  A    between atoms: _512  and  _515
REMARK  209  A    between atoms: _515  and  _516
REMARK  210  A    between atoms: _519  and  _521
REMARK  211  A    between atoms: _521  and  _522
REMARK  212  A    between atoms: _521  and  _524
REMARK  213  A    between atoms: _524  and  _525
REMARK  214  A    between atoms: _528  and  _530
REMARK  215  A    between atoms: _530  and  _531
REMARK  216  A    between atoms: _530  and  _533
REMARK  217  A    between atoms: _533  and  _534
REMARK  218  A    between atoms: _540  and  _542
REMARK  219  A    between atoms: _542  and  _543
REMARK  220  A    between atoms: _542  and  _545
REMARK  221  A    between atoms: _545  and  _546
REMARK  222  A    between atoms: _546  and  _547
REMARK  223  A    between atoms: _547  and  _548
REMARK                            x       y       z     vdW  Elec       q    Type
REMARK                         _______ _______ _______ _____ _____    ______ ____
ROOT
ATOM      1  C   VAL A   4      15.851  47.564   1.994  0.00  0.00    +0.241 C 
ATOM      2  N   GLY A   5      15.008  47.949   2.949  0.00  0.00    -0.295 N 
ATOM      3  H   GLY A   5      14.851  48.961   3.128  0.00  0.00    +0.150 HD
ATOM      4  O   VAL A   4      16.029  46.386   1.726  0.00  0.00    -0.273 OA
ENDROOT
BRANCH   2   5
ATOM      5  CA  GLY A   5      14.297  46.940   3.752  0.00  0.00    +0.176 C 
BRANCH   5   6
ATOM      6  C   GLY A   5      15.277  45.908   4.286  0.00  0.00    +0.243 C 
ATOM      7  O   GLY A   5      16.419  46.247   4.614  0.00  0.00    -0.273 OA
ATOM      8  N   GLU A   6      14.853  44.642   4.335  0.00  0.00    -0.297 N 
ATOM      9  H   GLU A   6      13.922  44.400   3.940  0.00  0.00    +0.150 HD
BRANCH   8  10
ATOM     10  CA  GLU A   6      15.678  43.584   4.936  0.00  0.00    +0.149 C 
BRANCH  10  11
ATOM     11  C   GLU A   6      16.620  42.836   3.974  0.00  0.00    +0.241 C 
ATOM     12  O   GLU A   6      16.953  41.662   4.208  0.00  0.00    -0.273 OA
ATOM     13  N   LEU A   7      17.055  43.509   2.908  0.00  0.00    -0.298 N 
ATOM     14  H   LEU A   7      16.639  44.437   2.689  0.00  0.00    +0.150 HD
BRANCH  13  15
ATOM     15  CA  LEU A   7      18.104  42.973   2.038  0.00  0.00    +0.137 C 
BRANCH  15  16
ATOM     16  C   LEU A   7      19.366  42.659   2.848  0.00  0.00    +0.227 C 
ATOM     17  O   LEU A   7      19.699  43.371   3.801  0.00  0.00    -0.286 OA
ENDBRANCH  15  16
BRANCH  15  18
ATOM     18  CB  LEU A   7      18.454  43.967   0.913  0.00  0.00    +0.028 C 
BRANCH  18  19
ATOM     19  CG  LEU A   7      17.449  44.305  -0.194  0.00  0.00    +0.002 C 
ATOM     20  CD2 LEU A   7      17.940  45.463  -1.044  0.00  0.00    +0.000 C 
ATOM     21  CD1 LEU A   7      17.088  43.101  -1.090  0.00  0.00    +0.000 C 
ENDBRANCH  18  19
ENDBRANCH  15  18
ENDBRANCH  13  15
ENDBRANCH  10  11
BRANCH  10  22
ATOM     22  CB  GLU A   6      14.799  42.581   5.677  0.00  0.00    +0.041 C 
BRANCH  22  23
ATOM     23  CG  GLU A   6      14.116  43.145   6.883  0.00  0.00    +0.116 C 
BRANCH  23  24
ATOM     24  CD  GLU A   6      13.310  42.095   7.603  0.00  0.00    +0.365 C 
ATOM     25  OE2 GLU A   6      13.729  41.703   8.709  0.00  0.00    -0.246 OA
ATOM     26  OE1 GLU A   6      12.268  41.653   7.064  0.00  0.00    -0.246 OA
ENDBRANCH  23  24
ENDBRANCH  22  23
ENDBRANCH  10  22
ENDBRANCH   8  10
ENDBRANCH   5   6
ENDBRANCH   2   5
BRANCH   1  27
ATOM     27  CA  VAL A   4      16.563  48.650   1.182  0.00  0.00    +0.149 C 
BRANCH  27  29
ATOM     28  C   GLY A   3      15.125  50.352   0.342  0.00  0.00    +0.243 C 
ATOM     29  N   VAL A   4      15.925  49.939   1.303  0.00  0.00    -0.297 N 
ATOM     30  H   VAL A   4      16.095  50.534   2.139  0.00  0.00    +0.150 HD
ATOM     31  O   GLY A   3      14.921  49.687  -0.662  0.00  0.00    -0.273 OA
BRANCH  28  32
ATOM     32  CA  GLY A   3      14.512  51.717   0.482  0.00  0.00    +0.176 C 
BRANCH  32  35
ATOM     33  C   ILE A   2      15.170  53.337  -1.230  0.00  0.00    +0.241 C 
ATOM     34  O   ILE A   2      15.911  53.957  -0.454  0.00  0.00    -0.273 OA
ATOM     35  N   GLY A   3      14.417  52.293  -0.863  0.00  0.00    -0.295 N 
ATOM     36  H   GLY A   3      13.750  51.881  -1.547  0.00  0.00    +0.150 HD
BRANCH  33  37
ATOM     37  CA  ILE A   2      15.080  53.779  -2.683  0.00  0.00    +0.148 C 
BRANCH  37  39
ATOM     38  C   GLY A   1      13.849  55.852  -3.081  0.00  0.00    +0.240 C 
ATOM     39  N   ILE A   2      14.977  55.238  -2.739  0.00  0.00    -0.297 N 
ATOM     40  H   ILE A   2      15.812  55.812  -2.504  0.00  0.00    +0.150 HD
ATOM     41  O   GLY A   1      12.874  55.249  -3.510  0.00  0.00    -0.274 OA
BRANCH  38  42
ATOM     42  CA  GLY A   1      13.843  57.368  -2.993  0.00  0.00    +0.169 C 
BRANCH  42  43
ATOM     43  N   GLY A   1      12.606  57.950  -3.553  0.00  0.00    -0.236 NA
ATOM     44  H   GLY A   1      11.704  57.448  -3.426  0.00  0.00    +0.142 HD
ENDBRANCH  42  43
ENDBRANCH  38  42
ENDBRANCH  37  39
BRANCH  37  45
ATOM     45  CB  ILE A   2      16.329  53.232  -3.492  0.00  0.00    +0.027 C 
ATOM     46  CG2 ILE A   2      17.645  53.834  -2.946  0.00  0.00    +0.002 C 
BRANCH  45  47
ATOM     47  CG1 ILE A   2      16.335  51.688  -3.433  0.00  0.00    +0.002 C 
ATOM     48  CD1 ILE A   2      16.711  50.994  -4.739  0.00  0.00    +0.000 C 
ENDBRANCH  45  47
ENDBRANCH  37  45
ENDBRANCH  33  37
ENDBRANCH  32  35
ENDBRANCH  28  32
ENDBRANCH  27  29
BRANCH  27  49
ATOM     49  CB  VAL A   4      18.085  48.707   1.480  0.00  0.00    +0.027 C 
ATOM     50  CG2 VAL A   4      18.341  49.195   2.919  0.00  0.00    +0.002 C 
ATOM     51  CG1 VAL A   4      18.793  49.567   0.394  0.00  0.00    +0.002 C 
ENDBRANCH  27  49
ENDBRANCH   1  27
TORSDOF 22
REMARK  Name = ../refined-set-2016/2wzm/2wzm_pocket.pdb
REMARK  223 active torsions:
REMARK  status: ('A' for Active; 'I' for Inactive)
REMARK    1  A    between atoms: _1  and  _3
REMARK    2  A    between atoms: _3  and  _4
REMARK    3  A    between atoms: _6  and  _8
REMARK    4  A    between atoms: _8  and  _9
REMARK    5  A    between atoms: _8  and  _11
REMARK    6  A    between atoms: _11  and  _12
REMARK    7  A    between atoms: _15  and  _17
REMARK    8  A    between atoms: _17  and  _18
REMARK    9  A    between atoms: _20  and  _22
REMARK   10  A    between atoms: _22  and  _23
REMARK   11  A    between atoms: _22  and  _25
REMARK   12  A    between atoms: _28  and  _30
REMARK   13  A    between atoms: _30  and  _31
REMARK   14  A    between atoms: _33  and  _35
REMARK   15  A    between atoms: _35  and  _36
REMARK   16  A    between atoms: _35  and  _38
REMARK   17  A    between atoms: _38  and  _39
REMARK   18  A    between atoms: _39  and  _40
REMARK   19  A    between atoms: _43  and  _45
REMARK   20  A    between atoms: _45  and  _46
REMARK   21  A    between atoms: _45  and  _48
REMARK   22  A    between atoms: _48  and  _49
REMARK   23  A    between atoms: _52  and  _54
REMARK   24  A    between atoms: _54  and  _55
REMARK   25  A    between atoms: _54  and  _57
REMARK   26  A    between atoms: _57  and  _58
REMARK   27  A    between atoms: _58  and  _59
REMARK   28  A    between atoms: _62  and  _64
REMARK   29  A    between atoms: _64  and  _65
REMARK   30  A    between atoms: _64  and  _67
REMARK   31  A    between atoms: _67  and  _68
REMARK   32  A    between atoms: _68  and  _69
REMARK   33  A    between atoms: _69  and  _70
REMARK   34  A    between atoms: _79  and  _81
REMARK   35  A    between atoms: _81  and  _82
REMARK   36  A    between atoms: _81  and  _84
REMARK   37  A    between atoms: _84  and  _85
REMARK   38  A    between atoms: _87  and  _89
REMARK   39  A    between atoms: _89  and  _90
REMARK   40  A    between atoms: _89  and  _92
REMARK   41  A    between atoms: _92  and  _93
REMARK   42  A    between atoms: _98  and  _99
REMARK   43  A    between atoms: _101  and  _103
REMARK   44  A    between atoms: _103  and  _104
REMARK   45  A    between atoms: _103  and  _106
REMARK   46  A    between atoms: _106  and  _107
REMARK   47  A    between atoms: _110  and  _112
REMARK   48  A    between atoms: _112  and  _113
REMARK   49  A    between atoms: _112  and  _115
REMARK   50  A    between atoms: _115  and  _116
REMARK   51  A    between atoms: _119  and  _121
REMARK   52  A    between atoms: _121  and  _122
REMARK   53  A    between atoms: _121  and  _124
REMARK   54  A    between atoms: _124  and  _125
REMARK   55  A    between atoms: _130  and  _131
REMARK   56  A    between atoms: _133  and  _135
REMARK   57  A    between atoms: _135  and  _136
REMARK   58  A    between atoms: _135  and  _138
REMARK   59  A    between atoms: _138  and  _139
REMARK   60  A    between atoms: _144  and  _146
REMARK   61  A    between atoms: _146  and  _147
REMARK   62  A    between atoms: _146  and  _149
REMARK   63  A    between atoms: _149  and  _150
REMARK   64  A    between atoms: _150  and  _151
REMARK   65  A    between atoms: _151  and  _152
REMARK   66  A    between atoms: _152  and  _153
REMARK   67  A    between atoms: _157  and  _159
REMARK   68  A    between atoms: _159  and  _160
REMARK   69  A    between atoms: _159  and  _162
REMARK   70  A    between atoms: _162  and  _163
REMARK   71  A    between atoms: _168  and  _170
REMARK   72  A    between atoms: _170  and  _171
REMARK   73  A    between atoms: _170  and  _173
REMARK   74  A    between atoms: _173  and  _174
REMARK   75  A    between atoms: _179  and  _181
REMARK   76  A    between atoms: _181  and  _182
REMARK   77  A    between atoms: _181  and  _184
REMARK   78  A    between atoms: _184  and  _185
REMARK   79  A    between atoms: _185  and  _186
REMARK   80  A    between atoms: _191  and  _193
REMARK   81  A    between atoms: _193  and  _194
REMARK   82  A    between atoms: _193  and  _196
REMARK   83  A    between atoms: _196  and  _197
REMARK   84  A    between atoms: _200  and  _202
REMARK   85  A    between atoms: _202  and  _203
REMARK   86  A    between atoms: _202  and  _205
REMARK   87  A    between atoms: _205  and  _206
REMARK   88  A    between atoms: _206  and  _207
REMARK   89  A    between atoms: _210  and  _212
REMARK   90  A    between atoms: _212  and  _213
REMARK   91  A    between atoms: _212  and  _215
REMARK   92  A    between atoms: _215  and  _216
REMARK   93  A    between atoms: _219  and  _221
REMARK   94  A    between atoms: _221  and  _222
REMARK   95  A    between atoms: _221  and  _224
REMARK   96  A    between atoms: _224  and  _225
REMARK   97  A    between atoms: _230  and  _232
REMARK   98  A    between atoms: _232  and  _233
REMARK   99  A    between atoms: _236  and  _238
REMARK  100  A    between atoms: _238  and  _239
REMARK  101  A    between atoms: _238  and  _241
REMARK  102  A    between atoms: _241  and  _242
REMARK  103  A    between atoms: _247  and  _248
REMARK  104  A    between atoms: _250  and  _252
REMARK  105  A    between atoms: _252  and  _253
REMARK  106  A    between atoms: _256  and  _257
REMARK  107  A    between atoms: _262  and  _264
REMARK  108  A    between atoms: _264  and  _265
REMARK  109  A    between atoms: _264  and  _267
REMARK  110  A    between atoms: _267  and  _268
REMARK  111  A    between atoms: _271  and  _273
REMARK  112  A    between atoms: _273  and  _274
REMARK  113  A    between atoms: _276  and  _278
REMARK  114  A    between atoms: _278  and  _279
REMARK  115  A    between atoms: _278  and  _281
REMARK  116  A    between atoms: _284  and  _286
REMARK  117  A    between atoms: _286  and  _287
REMARK  118  A    between atoms: _289  and  _291
REMARK  119  A    between atoms: _291  and  _292
REMARK  120  A    between atoms: _291  and  _294
REMARK  121  A    between atoms: _294  and  _295
REMARK  122  A    between atoms: _295  and  _296
REMARK  123  A    between atoms: _296  and  _297
REMARK  124  A    between atoms: _306  and  _308
REMARK  125  A    between atoms: _308  and  _309
REMARK  126  A    between atoms: _308  and  _311
REMARK  127  A    between atoms: _311  and  _312
REMARK  128  A    between atoms: _315  and  _317
REMARK  129  A    between atoms: _317  and  _318
REMARK  130  A    between atoms: _317  and  _320
REMARK  131  A    between atoms: _320  and  _321
REMARK  132  A    between atoms: _324  and  _326
REMARK  133  A    between atoms: _326  and  _327
REMARK  134  A    between atoms: _326  and  _329
REMARK  135  A    between atoms: _329  and  _330
REMARK  136  A    between atoms: _333  and  _335
REMARK  137  A    between atoms: _335  and  _336
REMARK  138  A    between atoms: _339  and  _341
REMARK  139  A    between atoms: _341  and  _342
REMARK  140  A    between atoms: _345  and  _347
REMARK  141  A    between atoms: _347  and  _348
REMARK  142  A    between atoms: _347  and  _350
REMARK  143  A    between atoms: _350  and  _351
REMARK  144  A    between atoms: _351  and  _352
REMARK  145  A    between atoms: _357  and  _359
REMARK  146  A    between atoms: _359  and  _360
REMARK  147  A    between atoms: _359  and  _362
REMARK  148  A    between atoms: _362  and  _363
REMARK  149  A    between atoms: _366  and  _368
REMARK  150  A    between atoms: _368  and  _369
REMARK  151  A    between atoms: _368  and  _371
REMARK  152  A    between atoms: _371  and  _372
REMARK  153  A    between atoms: _375  and  _377
REMARK  154  A    between atoms: _377  and  _378
REMARK  155  A    between atoms: _377  and  _380
REMARK  156  A    between atoms: _383  and  _385
REMARK  157  A    between atoms: _385  and  _386
REMARK  158  A    between atoms: _385  and  _388
REMARK  159  A    between atoms: _388  and  _389
REMARK  160  A    between atoms: _392  and  _394
REMARK  161  A    between atoms: _394  and  _395
REMARK  162  A    between atoms: _394  and  _397
REMARK  163  A    between atoms: _397  and  _398
REMARK  164  A    between atoms: _400  and  _402
REMARK  165  A    between atoms: _402  and  _403
REMARK  166  A    between atoms: _402  and  _405
REMARK  167  A    between atoms: _405  and  _406
REMARK  168  A    between atoms: _406  and  _407
REMARK  169  A    between atoms: _407  and  _408
REMARK  170  A    between atoms: _417  and  _419
REMARK  171  A    between atoms: _419  and  _420
REMARK  172  A    between atoms: _419  and  _422
REMARK  173  A    between atoms: _422  and  _423
REMARK  174  A    between atoms: _425  and  _427
REMARK  175  A    between atoms: _427  and  _428
REMARK  176  A    between atoms: _431  and  _433
REMARK  177  A    between atoms: _433  and  _434
REMARK  178  A    between atoms: _433  and  _436
REMARK  179  A    between atoms: _436  and  _437
REMARK  180  A    between atoms: _443  and  _444
REMARK  181  A    between atoms: _449  and  _451
REMARK  182  A    between atoms: _451  and  _452
REMARK  183  A    between atoms: _451  and  _454
REMARK  184  A    between atoms: _454  and  _455
REMARK  185  A    between atoms: _455  and  _456
REMARK  186  A    between atoms: _459  and  _461
REMARK  187  A    between atoms: _461  and  _462
REMARK  188  A    between atoms: _461  and  _464
REMARK  189  A    between atoms: _464  and  _465
REMARK  190  A    between atoms: _465  and  _466
REMARK  191  A    between atoms: _466  and  _467
REMARK  192  A    between atoms: _476  and  _478
REMARK  193  A    between atoms: _478  and  _479
REMARK  194  A    between atoms: _478  and  _481
REMARK  195  A    between atoms: _481  and  _482
REMARK  196  A    between atoms: _485  and  _487
REMARK  197  A    between atoms: _487  and  _488
REMARK  198  A    between atoms: _491  and  _493
REMARK  199  A    between atoms: _493  and  _494
REMARK  200  A    between atoms: _493  and  _496
REMARK  201  A    between atoms: _496  and  _497
REMARK  202  A    between atoms: _499  and  _501
REMARK  203  A    between atoms: _501  and  _502
REMARK  204  A    between atoms: _501  and  _504
REMARK  205  A    between atoms: _504  and  _505
REMARK  206  A    between atoms: _510  and  _512
REMARK  207  A    between atoms: _512  and  _513
REMARK  208  A    between atoms: _512  and  _515
REMARK  209  A    between atoms: _515  and  _516
REMARK  210  A    between atoms: _519  and  _521
REMARK  211  A    between atoms: _521  and  _522
REMARK  212  A    between atoms: _521  and  _524
REMARK  213  A    between atoms: _524  and  _525
REMARK  214  A    between atoms: _528  and  _530
REMARK  215  A    between atoms: _530  and  _531
REMARK  216  A    between atoms: _530  and  _533
REMARK  217  A    between atoms: _533  and  _534
REMARK  218  A    between atoms: _540  and  _542
REMARK  219  A    between atoms: _542  and  _543
REMARK  220  A    between atoms: _542  and  _545
REMARK  221  A    between atoms: _545  and  _546
REMARK  222  A    between atoms: _546  and  _547
REMARK  223  A    between atoms: _547  and  _548
REMARK                            x       y       z     vdW  Elec       q    Type
REMARK                         _______ _______ _______ _____ _____    ______ ____
ROOT
ATOM      1  CA  GLU A   1      22.394  43.099  -1.698  0.00  0.00    +0.134 C 
ENDROOT
BRANCH   1   2
ATOM      2  N   GLU A   1      23.467  42.615  -0.819  0.00  0.00    -0.239 NA
ATOM      3  H   GLU A   1      23.232  41.940  -0.063  0.00  0.00    +0.142 HD
ENDBRANCH   1   2
BRANCH   1   4
ATOM      4  C   GLU A   1      22.071  44.579  -1.477  0.00  0.00    +0.224 C 
ATOM      5  O   GLU A   1      21.755  45.296  -2.430  0.00  0.00    -0.287 OA
ENDBRANCH   1   4
BRANCH   1   6
ATOM      6  CB  GLU A   1      21.100  42.333  -1.456  0.00  0.00    +0.037 C 
BRANCH   6   7
ATOM      7  CG  GLU A   1      21.116  40.842  -1.757  0.00  0.00    +0.116 C 
BRANCH   7   8
ATOM      8  CD  GLU A   1      19.858  40.179  -1.229  0.00  0.00    +0.365 C 
ATOM      9  OE2 GLU A   1      19.909  39.622  -0.107  0.00  0.00    -0.246 OA
ATOM     10  OE1 GLU A   1      18.809  40.255  -1.913  0.00  0.00    -0.246 OA
ENDBRANCH   7   8
ENDBRANCH   6   7
ENDBRANCH   1   6
TORSDOF 5
REMARK  Name = ../refined-set-2016/2wzm/2wzm_pocket.pdb
REMARK  223 active torsions:
REMARK  status: ('A' for Active; 'I' for Inactive)
REMARK    1  A    between atoms: _1  and  _3
REMARK    2  A    between atoms: _3  and  _4
REMARK    3  A    between atoms: _6  and  _8
REMARK    4  A    between atoms: _8  and  _9
REMARK    5  A    between atoms: _8  and  _11
REMARK    6  A    between atoms: _11  and  _12
REMARK    7  A    between atoms: _15  and  _17
REMARK    8  A    between atoms: _17  and  _18
REMARK    9  A    between atoms: _20  and  _22
REMARK   10  A    between atoms: _22  and  _23
REMARK   11  A    between atoms: _22  and  _25
REMARK   12  A    between atoms: _28  and  _30
REMARK   13  A    between atoms: _30  and  _31
REMARK   14  A    between atoms: _33  and  _35
REMARK   15  A    between atoms: _35  and  _36
REMARK   16  A    between atoms: _35  and  _38
REMARK   17  A    between atoms: _38  and  _39
REMARK   18  A    between atoms: _39  and  _40
REMARK   19  A    between atoms: _43  and  _45
REMARK   20  A    between atoms: _45  and  _46
REMARK   21  A    between atoms: _45  and  _48
REMARK   22  A    between atoms: _48  and  _49
REMARK   23  A    between atoms: _52  and  _54
REMARK   24  A    between atoms: _54  and  _55
REMARK   25  A    between atoms: _54  and  _57
REMARK   26  A    between atoms: _57  and  _58
REMARK   27  A    between atoms: _58  and  _59
REMARK   28  A    between atoms: _62  and  _64
REMARK   29  A    between atoms: _64  and  _65
REMARK   30  A    between atoms: _64  and  _67
REMARK   31  A    between atoms: _67  and  _68
REMARK   32  A    between atoms: _68  and  _69
REMARK   33  A    between atoms: _69  and  _70
REMARK   34  A    between atoms: _79  and  _81
REMARK   35  A    between atoms: _81  and  _82
REMARK   36  A    between atoms: _81  and  _84
REMARK   37  A    between atoms: _84  and  _85
REMARK   38  A    between atoms: _87  and  _89
REMARK   39  A    between atoms: _89  and  _90
REMARK   40  A    between atoms: _89  and  _92
REMARK   41  A    between atoms: _92  and  _93
REMARK   42  A    between atoms: _98  and  _99
REMARK   43  A    between atoms: _101  and  _103
REMARK   44  A    between atoms: _103  and  _104
REMARK   45  A    between atoms: _103  and  _106
REMARK   46  A    between atoms: _106  and  _107
REMARK   47  A    between atoms: _110  and  _112
REMARK   48  A    between atoms: _112  and  _113
REMARK   49  A    between atoms: _112  and  _115
REMARK   50  A    between atoms: _115  and  _116
REMARK   51  A    between atoms: _119  and  _121
REMARK   52  A    between atoms: _121  and  _122
REMARK   53  A    between atoms: _121  and  _124
REMARK   54  A    between atoms: _124  and  _125
REMARK   55  A    between atoms: _130  and  _131
REMARK   56  A    between atoms: _133  and  _135
REMARK   57  A    between atoms: _135  and  _136
REMARK   58  A    between atoms: _135  and  _138
REMARK   59  A    between atoms: _138  and  _139
REMARK   60  A    between atoms: _144  and  _146
REMARK   61  A    between atoms: _146  and  _147
REMARK   62  A    between atoms: _146  and  _149
REMARK   63  A    between atoms: _149  and  _150
REMARK   64  A    between atoms: _150  and  _151
REMARK   65  A    between atoms: _151  and  _152
REMARK   66  A    between atoms: _152  and  _153
REMARK   67  A    between atoms: _157  and  _159
REMARK   68  A    between atoms: _159  and  _160
REMARK   69  A    between atoms: _159  and  _162
REMARK   70  A    between atoms: _162  and  _163
REMARK   71  A    between atoms: _168  and  _170
REMARK   72  A    between atoms: _170  and  _171
REMARK   73  A    between atoms: _170  and  _173
REMARK   74  A    between atoms: _173  and  _174
REMARK   75  A    between atoms: _179  and  _181
REMARK   76  A    between atoms: _181  and  _182
REMARK   77  A    between atoms: _181  and  _184
REMARK   78  A    between atoms: _184  and  _185
REMARK   79  A    between atoms: _185  and  _186
REMARK   80  A    between atoms: _191  and  _193
REMARK   81  A    between atoms: _193  and  _194
REMARK   82  A    between atoms: _193  and  _196
REMARK   83  A    between atoms: _196  and  _197
REMARK   84  A    between atoms: _200  and  _202
REMARK   85  A    between atoms: _202  and  _203
REMARK   86  A    between atoms: _202  and  _205
REMARK   87  A    between atoms: _205  and  _206
REMARK   88  A    between atoms: _206  and  _207
REMARK   89  A    between atoms: _210  and  _212
REMARK   90  A    between atoms: _212  and  _213
REMARK   91  A    between atoms: _212  and  _215
REMARK   92  A    between atoms: _215  and  _216
REMARK   93  A    between atoms: _219  and  _221
REMARK   94  A    between atoms: _221  and  _222
REMARK   95  A    between atoms: _221  and  _224
REMARK   96  A    between atoms: _224  and  _225
REMARK   97  A    between atoms: _230  and  _232
REMARK   98  A    between atoms: _232  and  _233
REMARK   99  A    between atoms: _236  and  _238
REMARK  100  A    between atoms: _238  and  _239
REMARK  101  A    between atoms: _238  and  _241
REMARK  102  A    between atoms: _241  and  _242
REMARK  103  A    between atoms: _247  and  _248
REMARK  104  A    between atoms: _250  and  _252
REMARK  105  A    between atoms: _252  and  _253
REMARK  106  A    between atoms: _256  and  _257
REMARK  107  A    between atoms: _262  and  _264
REMARK  108  A    between atoms: _264  and  _265
REMARK  109  A    between atoms: _264  and  _267
REMARK  110  A    between atoms: _267  and  _268
REMARK  111  A    between atoms: _271  and  _273
REMARK  112  A    between atoms: _273  and  _274
REMARK  113  A    between atoms: _276  and  _278
REMARK  114  A    between atoms: _278  and  _279
REMARK  115  A    between atoms: _278  and  _281
REMARK  116  A    between atoms: _284  and  _286
REMARK  117  A    between atoms: _286  and  _287
REMARK  118  A    between atoms: _289  and  _291
REMARK  119  A    between atoms: _291  and  _292
REMARK  120  A    between atoms: _291  and  _294
REMARK  121  A    between atoms: _294  and  _295
REMARK  122  A    between atoms: _295  and  _296
REMARK  123  A    between atoms: _296  and  _297
REMARK  124  A    between atoms: _306  and  _308
REMARK  125  A    between atoms: _308  and  _309
REMARK  126  A    between atoms: _308  and  _311
REMARK  127  A    between atoms: _311  and  _312
REMARK  128  A    between atoms: _315  and  _317
REMARK  129  A    between atoms: _317  and  _318
REMARK  130  A    between atoms: _317  and  _320
REMARK  131  A    between atoms: _320  and  _321
REMARK  132  A    between atoms: _324  and  _326
REMARK  133  A    between atoms: _326  and  _327
REMARK  134  A    between atoms: _326  and  _329
REMARK  135  A    between atoms: _329  and  _330
REMARK  136  A    between atoms: _333  and  _335
REMARK  137  A    between atoms: _335  and  _336
REMARK  138  A    between atoms: _339  and  _341
REMARK  139  A    between atoms: _341  and  _342
REMARK  140  A    between atoms: _345  and  _347
REMARK  141  A    between atoms: _347  and  _348
REMARK  142  A    between atoms: _347  and  _350
REMARK  143  A    between atoms: _350  and  _351
REMARK  144  A    between atoms: _351  and  _352
REMARK  145  A    between atoms: _357  and  _359
REMARK  146  A    between atoms: _359  and  _360
REMARK  147  A    between atoms: _359  and  _362
REMARK  148  A    between atoms: _362  and  _363
REMARK  149  A    between atoms: _366  and  _368
REMARK  150  A    between atoms: _368  and  _369
REMARK  151  A    between atoms: _368  and  _371
REMARK  152  A    between atoms: _371  and  _372
REMARK  153  A    between atoms: _375  and  _377
REMARK  154  A    between atoms: _377  and  _378
REMARK  155  A    between atoms: _377  and  _380
REMARK  156  A    between atoms: _383  and  _385
REMARK  157  A    between atoms: _385  and  _386
REMARK  158  A    between atoms: _385  and  _388
REMARK  159  A    between atoms: _388  and  _389
REMARK  160  A    between atoms: _392  and  _394
REMARK  161  A    between atoms: _394  and  _395
REMARK  162  A    between atoms: _394  and  _397
REMARK  163  A    between atoms: _397  and  _398
REMARK  164  A    between atoms: _400  and  _402
REMARK  165  A    between atoms: _402  and  _403
REMARK  166  A    between atoms: _402  and  _405
REMARK  167  A    between atoms: _405  and  _406
REMARK  168  A    between atoms: _406  and  _407
REMARK  169  A    between atoms: _407  and  _408
REMARK  170  A    between atoms: _417  and  _419
REMARK  171  A    between atoms: _419  and  _420
REMARK  172  A    between atoms: _419  and  _422
REMARK  173  A    between atoms: _422  and  _423
REMARK  174  A    between atoms: _425  and  _427
REMARK  175  A    between atoms: _427  and  _428
REMARK  176  A    between atoms: _431  and  _433
REMARK  177  A    between atoms: _433  and  _434
REMARK  178  A    between atoms: _433  and  _436
REMARK  179  A    between atoms: _436  and  _437
REMARK  180  A    between atoms: _443  and  _444
REMARK  181  A    between atoms: _449  and  _451
REMARK  182  A    between atoms: _451  and  _452
REMARK  183  A    between atoms: _451  and  _454
REMARK  184  A    between atoms: _454  and  _455
REMARK  185  A    between atoms: _455  and  _456
REMARK  186  A    between atoms: _459  and  _461
REMARK  187  A    between atoms: _461  and  _462
REMARK  188  A    between atoms: _461  and  _464
REMARK  189  A    between atoms: _464  and  _465
REMARK  190  A    between atoms: _465  and  _466
REMARK  191  A    between atoms: _466  and  _467
REMARK  192  A    between atoms: _476  and  _478
REMARK  193  A    between atoms: _478  and  _479
REMARK  194  A    between atoms: _478  and  _481
REMARK  195  A    between atoms: _481  and  _482
REMARK  196  A    between atoms: _485  and  _487
REMARK  197  A    between atoms: _487  and  _488
REMARK  198  A    between atoms: _491  and  _493
REMARK  199  A    between atoms: _493  and  _494
REMARK  200  A    between atoms: _493  and  _496
REMARK  201  A    between atoms: _496  and  _497
REMARK  202  A    between atoms: _499  and  _501
REMARK  203  A    between atoms: _501  and  _502
REMARK  204  A    between atoms: _501  and  _504
REMARK  205  A    between atoms: _504  and  _505
REMARK  206  A    between atoms: _510  and  _512
REMARK  207  A    between atoms: _512  and  _513
REMARK  208  A    between atoms: _512  and  _515
REMARK  209  A    between atoms: _515  and  _516
REMARK  210  A    between atoms: _519  and  _521
REMARK  211  A    between atoms: _521  and  _522
REMARK  212  A    between atoms: _521  and  _524
REMARK  213  A    between atoms: _524  and  _525
REMARK  214  A    between atoms: _528  and  _530
REMARK  215  A    between atoms: _530  and  _531
REMARK  216  A    between atoms: _530  and  _533
REMARK  217  A    between atoms: _533  and  _534
REMARK  218  A    between atoms: _540  and  _542
REMARK  219  A    between atoms: _542  and  _543
REMARK  220  A    between atoms: _542  and  _545
REMARK  221  A    between atoms: _545  and  _546
REMARK  222  A    between atoms: _546  and  _547
REMARK  223  A    between atoms: _547  and  _548
REMARK                            x       y       z     vdW  Elec       q    Type
REMARK                         _______ _______ _______ _____ _____    ______ ____
ROOT
ATOM      1  CA  ARG A   1      24.641  46.597  -4.509  0.00  0.00    +0.145 C 
ENDROOT
BRANCH   1   2
ATOM      2  C   ARG A   1      23.518  47.534  -5.016  0.00  0.00    +0.238 C 
ATOM      3  N   SER A   2      22.333  47.474  -4.391  0.00  0.00    -0.296 N 
ATOM      4  H   SER A   2      22.216  46.820  -3.591  0.00  0.00    +0.150 HD
ATOM      5  O   ARG A   1      23.728  48.305  -5.958  0.00  0.00    -0.274 OA
BRANCH   3   6
ATOM      6  CA  SER A   2      21.189  48.310  -4.807  0.00  0.00    +0.166 C 
BRANCH   6   7
ATOM      7  C   SER A   2      21.411  49.814  -4.570  0.00  0.00    +0.229 C 
ATOM      8  O   SER A   2      21.046  50.639  -5.396  0.00  0.00    -0.286 OA
ENDBRANCH   6   7
BRANCH   6   9
ATOM      9  CB  SER A   2      19.891  47.839  -4.125  0.00  0.00    +0.165 C 
BRANCH   9  10
ATOM     10  OG  SER A   2      19.690  46.442  -4.354  0.00  0.00    -0.380 OA
ATOM     11  H   SER A   2      20.454  45.934  -3.982  0.00  0.00    +0.211 HD
ENDBRANCH   9  10
ENDBRANCH   6   9
ENDBRANCH   3   6
ENDBRANCH   1   2
BRANCH   1  12
ATOM     12  N   ARG A   1      24.853  46.613  -3.056  0.00  0.00    -0.238 NA
ATOM     13  H   ARG A   1      24.773  45.726  -2.519  0.00  0.00    +0.142 HD
ENDBRANCH   1  12
BRANCH   1  14
ATOM     14  CB  ARG A   1      24.443  45.164  -5.041  0.00  0.00    +0.030 C 
BRANCH  14  15
ATOM     15  CG  ARG A   1      24.059  45.164  -6.536  0.00  0.00    +0.045 C 
BRANCH  15  16
ATOM     16  CD  ARG A   1      23.822  43.776  -7.142  0.00  0.00    +0.174 C 
BRANCH  16  17
ATOM     17  NE  ARG A   1      22.611  43.120  -6.630  0.00  0.00    -0.265 N 
ATOM     18  CZ  ARG A   1      22.608  42.117  -5.750  0.00  0.00    +0.342 C 
ATOM     19  NH2 ARG A   1      23.750  41.641  -5.263  0.00  0.00    -0.292 N 
ATOM     20 HH21 ARG A   1      23.737  40.859  -4.578  0.00  0.00    +0.255 HD
ATOM     21 HH22 ARG A   1      24.656  42.051  -5.568  0.00  0.00    +0.255 HD
ATOM     22  NH1 ARG A   1      21.458  41.588  -5.347  0.00  0.00    -0.292 N 
ATOM     23 HH11 ARG A   1      21.457  40.806  -4.661  0.00  0.00    +0.255 HD
ATOM     24 HH12 ARG A   1      20.558  41.956  -5.717  0.00  0.00    +0.255 HD
ATOM     25  HE  ARG A   1      21.692  43.461  -6.978  0.00  0.00    +0.259 HD
ENDBRANCH  16  17
ENDBRANCH  15  16
ENDBRANCH  14  15
ENDBRANCH   1  14
TORSDOF 10
REMARK  Name = ../refined-set-2016/2wzm/2wzm_pocket.pdb
REMARK  223 active torsions:
REMARK  status: ('A' for Active; 'I' for Inactive)
REMARK    1  A    between atoms: _1  and  _3
REMARK    2  A    between atoms: _3  and  _4
REMARK    3  A    between atoms: _6  and  _8
REMARK    4  A    between atoms: _8  and  _9
REMARK    5  A    between atoms: _8  and  _11
REMARK    6  A    between atoms: _11  and  _12
REMARK    7  A    between atoms: _15  and  _17
REMARK    8  A    between atoms: _17  and  _18
REMARK    9  A    between atoms: _20  and  _22
REMARK   10  A    between atoms: _22  and  _23
REMARK   11  A    between atoms: _22  and  _25
REMARK   12  A    between atoms: _28  and  _30
REMARK   13  A    between atoms: _30  and  _31
REMARK   14  A    between atoms: _33  and  _35
REMARK   15  A    between atoms: _35  and  _36
REMARK   16  A    between atoms: _35  and  _38
REMARK   17  A    between atoms: _38  and  _39
REMARK   18  A    between atoms: _39  and  _40
REMARK   19  A    between atoms: _43  and  _45
REMARK   20  A    between atoms: _45  and  _46
REMARK   21  A    between atoms: _45  and  _48
REMARK   22  A    between atoms: _48  and  _49
REMARK   23  A    between atoms: _52  and  _54
REMARK   24  A    between atoms: _54  and  _55
REMARK   25  A    between atoms: _54  and  _57
REMARK   26  A    between atoms: _57  and  _58
REMARK   27  A    between atoms: _58  and  _59
REMARK   28  A    between atoms: _62  and  _64
REMARK   29  A    between atoms: _64  and  _65
REMARK   30  A    between atoms: _64  and  _67
REMARK   31  A    between atoms: _67  and  _68
REMARK   32  A    between atoms: _68  and  _69
REMARK   33  A    between atoms: _69  and  _70
REMARK   34  A    between atoms: _79  and  _81
REMARK   35  A    between atoms: _81  and  _82
REMARK   36  A    between atoms: _81  and  _84
REMARK   37  A    between atoms: _84  and  _85
REMARK   38  A    between atoms: _87  and  _89
REMARK   39  A    between atoms: _89  and  _90
REMARK   40  A    between atoms: _89  and  _92
REMARK   41  A    between atoms: _92  and  _93
REMARK   42  A    between atoms: _98  and  _99
REMARK   43  A    between atoms: _101  and  _103
REMARK   44  A    between atoms: _103  and  _104
REMARK   45  A    between atoms: _103  and  _106
REMARK   46  A    between atoms: _106  and  _107
REMARK   47  A    between atoms: _110  and  _112
REMARK   48  A    between atoms: _112  and  _113
REMARK   49  A    between atoms: _112  and  _115
REMARK   50  A    between atoms: _115  and  _116
REMARK   51  A    between atoms: _119  and  _121
REMARK   52  A    between atoms: _121  and  _122
REMARK   53  A    between atoms: _121  and  _124
REMARK   54  A    between atoms: _124  and  _125
REMARK   55  A    between atoms: _130  and  _131
REMARK   56  A    between atoms: _133  and  _135
REMARK   57  A    between atoms: _135  and  _136
REMARK   58  A    between atoms: _135  and  _138
REMARK   59  A    between atoms: _138  and  _139
REMARK   60  A    between atoms: _144  and  _146
REMARK   61  A    between atoms: _146  and  _147
REMARK   62  A    between atoms: _146  and  _149
REMARK   63  A    between atoms: _149  and  _150
REMARK   64  A    between atoms: _150  and  _151
REMARK   65  A    between atoms: _151  and  _152
REMARK   66  A    between atoms: _152  and  _153
REMARK   67  A    between atoms: _157  and  _159
REMARK   68  A    between atoms: _159  and  _160
REMARK   69  A    between atoms: _159  and  _162
REMARK   70  A    between atoms: _162  and  _163
REMARK   71  A    between atoms: _168  and  _170
REMARK   72  A    between atoms: _170  and  _171
REMARK   73  A    between atoms: _170  and  _173
REMARK   74  A    between atoms: _173  and  _174
REMARK   75  A    between atoms: _179  and  _181
REMARK   76  A    between atoms: _181  and  _182
REMARK   77  A    between atoms: _181  and  _184
REMARK   78  A    between atoms: _184  and  _185
REMARK   79  A    between atoms: _185  and  _186
REMARK   80  A    between atoms: _191  and  _193
REMARK   81  A    between atoms: _193  and  _194
REMARK   82  A    between atoms: _193  and  _196
REMARK   83  A    between atoms: _196  and  _197
REMARK   84  A    between atoms: _200  and  _202
REMARK   85  A    between atoms: _202  and  _203
REMARK   86  A    between atoms: _202  and  _205
REMARK   87  A    between atoms: _205  and  _206
REMARK   88  A    between atoms: _206  and  _207
REMARK   89  A    between atoms: _210  and  _212
REMARK   90  A    between atoms: _212  and  _213
REMARK   91  A    between atoms: _212  and  _215
REMARK   92  A    between atoms: _215  and  _216
REMARK   93  A    between atoms: _219  and  _221
REMARK   94  A    between atoms: _221  and  _222
REMARK   95  A    between atoms: _221  and  _224
REMARK   96  A    between atoms: _224  and  _225
REMARK   97  A    between atoms: _230  and  _232
REMARK   98  A    between atoms: _232  and  _233
REMARK   99  A    between atoms: _236  and  _238
REMARK  100  A    between atoms: _238  and  _239
REMARK  101  A    between atoms: _238  and  _241
REMARK  102  A    between atoms: _241  and  _242
REMARK  103  A    between atoms: _247  and  _248
REMARK  104  A    between atoms: _250  and  _252
REMARK  105  A    between atoms: _252  and  _253
REMARK  106  A    between atoms: _256  and  _257
REMARK  107  A    between atoms: _262  and  _264
REMARK  108  A    between atoms: _264  and  _265
REMARK  109  A    between atoms: _264  and  _267
REMARK  110  A    between atoms: _267  and  _268
REMARK  111  A    between atoms: _271  and  _273
REMARK  112  A    between atoms: _273  and  _274
REMARK  113  A    between atoms: _276  and  _278
REMARK  114  A    between atoms: _278  and  _279
REMARK  115  A    between atoms: _278  and  _281
REMARK  116  A    between atoms: _284  and  _286
REMARK  117  A    between atoms: _286  and  _287
REMARK  118  A    between atoms: _289  and  _291
REMARK  119  A    between atoms: _291  and  _292
REMARK  120  A    between atoms: _291  and  _294
REMARK  121  A    between atoms: _294  and  _295
REMARK  122  A    between atoms: _295  and  _296
REMARK  123  A    between atoms: _296  and  _297
REMARK  124  A    between atoms: _306  and  _308
REMARK  125  A    between atoms: _308  and  _309
REMARK  126  A    between atoms: _308  and  _311
REMARK  127  A    between atoms: _311  and  _312
REMARK  128  A    between atoms: _315  and  _317
REMARK  129  A    between atoms: _317  and  _318
REMARK  130  A    between atoms: _317  and  _320
REMARK  131  A    between atoms: _320  and  _321
REMARK  132  A    between atoms: _324  and  _326
REMARK  133  A    between atoms: _326  and  _327
REMARK  134  A    between atoms: _326  and  _329
REMARK  135  A    between atoms: _329  and  _330
REMARK  136  A    between atoms: _333  and  _335
REMARK  137  A    between atoms: _335  and  _336
REMARK  138  A    between atoms: _339  and  _341
REMARK  139  A    between atoms: _341  and  _342
REMARK  140  A    between atoms: _345  and  _347
REMARK  141  A    between atoms: _347  and  _348
REMARK  142  A    between atoms: _347  and  _350
REMARK  143  A    between atoms: _350  and  _351
REMARK  144  A    between atoms: _351  and  _352
REMARK  145  A    between atoms: _357  and  _359
REMARK  146  A    between atoms: _359  and  _360
REMARK  147  A    between atoms: _359  and  _362
REMARK  148  A    between atoms: _362  and  _363
REMARK  149  A    between atoms: _366  and  _368
REMARK  150  A    between atoms: _368  and  _369
REMARK  151  A    between atoms: _368  and  _371
REMARK  152  A    between atoms: _371  and  _372
REMARK  153  A    between atoms: _375  and  _377
REMARK  154  A    between atoms: _377  and  _378
REMARK  155  A    between atoms: _377  and  _380
REMARK  156  A    between atoms: _383  and  _385
REMARK  157  A    between atoms: _385  and  _386
REMARK  158  A    between atoms: _385  and  _388
REMARK  159  A    between atoms: _388  and  _389
REMARK  160  A    between atoms: _392  and  _394
REMARK  161  A    between atoms: _394  and  _395
REMARK  162  A    between atoms: _394  and  _397
REMARK  163  A    between atoms: _397  and  _398
REMARK  164  A    between atoms: _400  and  _402
REMARK  165  A    between atoms: _402  and  _403
REMARK  166  A    between atoms: _402  and  _405
REMARK  167  A    between atoms: _405  and  _406
REMARK  168  A    between atoms: _406  and  _407
REMARK  169  A    between atoms: _407  and  _408
REMARK  170  A    between atoms: _417  and  _419
REMARK  171  A    between atoms: _419  and  _420
REMARK  172  A    between atoms: _419  and  _422
REMARK  173  A    between atoms: _422  and  _423
REMARK  174  A    between atoms: _425  and  _427
REMARK  175  A    between atoms: _427  and  _428
REMARK  176  A    between atoms: _431  and  _433
REMARK  177  A    between atoms: _433  and  _434
REMARK  178  A    between atoms: _433  and  _436
REMARK  179  A    between atoms: _436  and  _437
REMARK  180  A    between atoms: _443  and  _444
REMARK  181  A    between atoms: _449  and  _451
REMARK  182  A    between atoms: _451  and  _452
REMARK  183  A    between atoms: _451  and  _454
REMARK  184  A    between atoms: _454  and  _455
REMARK  185  A    between atoms: _455  and  _456
REMARK  186  A    between atoms: _459  and  _461
REMARK  187  A    between atoms: _461  and  _462
REMARK  188  A    between atoms: _461  and  _464
REMARK  189  A    between atoms: _464  and  _465
REMARK  190  A    between atoms: _465  and  _466
REMARK  191  A    between atoms: _466  and  _467
REMARK  192  A    between atoms: _476  and  _478
REMARK  193  A    between atoms: _478  and  _479
REMARK  194  A    between atoms: _478  and  _481
REMARK  195  A    between atoms: _481  and  _482
REMARK  196  A    between atoms: _485  and  _487
REMARK  197  A    between atoms: _487  and  _488
REMARK  198  A    between atoms: _491  and  _493
REMARK  199  A    between atoms: _493  and  _494
REMARK  200  A    between atoms: _493  and  _496
REMARK  201  A    between atoms: _496  and  _497
REMARK  202  A    between atoms: _499  and  _501
REMARK  203  A    between atoms: _501  and  _502
REMARK  204  A    between atoms: _501  and  _504
REMARK  205  A    between atoms: _504  and  _505
REMARK  206  A    between atoms: _510  and  _512
REMARK  207  A    between atoms: _512  and  _513
REMARK  208  A    between atoms: _512  and  _515
REMARK  209  A    between atoms: _515  and  _516
REMARK  210  A    between atoms: _519  and  _521
REMARK  211  A    between atoms: _521  and  _522
REMARK  212  A    between atoms: _521  and  _524
REMARK  213  A    between atoms: _524  and  _525
REMARK  214  A    between atoms: _528  and  _530
REMARK  215  A    between atoms: _530  and  _531
REMARK  216  A    between atoms: _530  and  _533
REMARK  217  A    between atoms: _533  and  _534
REMARK  218  A    between atoms: _540  and  _542
REMARK  219  A    between atoms: _542  and  _543
REMARK  220  A    between atoms: _542  and  _545
REMARK  221  A    between atoms: _545  and  _546
REMARK  222  A    between atoms: _546  and  _547
REMARK  223  A    between atoms: _547  and  _548
REMARK                            x       y       z     vdW  Elec       q    Type
REMARK                         _______ _______ _______ _____ _____    ______ ____
ROOT
ATOM      1  CG  TYR A   1      17.314  56.236  -6.734  0.00  0.00    -0.020 A 
ATOM      2  CD2 TYR A   1      16.164  55.923  -6.033  0.00  0.00    -0.001 A 
ATOM      3  CE2 TYR A   1      15.196  55.069  -6.585  0.00  0.00    +0.036 A 
ATOM      4  CZ  TYR A   1      15.422  54.517  -7.829  0.00  0.00    +0.134 A 
ATOM      5  CE1 TYR A   1      16.563  54.816  -8.528  0.00  0.00    +0.036 A 
ATOM      6  CD1 TYR A   1      17.513  55.637  -7.977  0.00  0.00    -0.001 A 
ENDROOT
BRANCH   4   7
ATOM      7  OH  TYR A   1      14.500  53.663  -8.395  0.00  0.00    -0.506 OA
ATOM      8  HH  TYR A   1      14.926  52.786  -8.566  0.00  0.00    +0.292 HD
ENDBRANCH   4   7
BRANCH   1   9
ATOM      9  CB  TYR A   1      18.376  57.118  -6.126  0.00  0.00    +0.051 C 
BRANCH   9  10
ATOM     10  CA  TYR A   1      18.628  58.477  -6.769  0.00  0.00    +0.137 C 
BRANCH  10  11
ATOM     11  N   TYR A   1      19.302  58.366  -8.082  0.00  0.00    -0.239 NA
ATOM     12  H   TYR A   1      19.568  57.429  -8.447  0.00  0.00    +0.142 HD
ENDBRANCH  10  11
BRANCH  10  13
ATOM     13  C   TYR A   1      19.533  59.265  -5.810  0.00  0.00    +0.224 C 
ATOM     14  O   TYR A   1      20.771  59.094  -5.835  0.00  0.00    -0.287 OA
ENDBRANCH  10  13
ENDBRANCH   9  10
ENDBRANCH   1   9
TORSDOF 5
REMARK  Name = ../refined-set-2016/2wzm/2wzm_pocket.pdb
REMARK  223 active torsions:
REMARK  status: ('A' for Active; 'I' for Inactive)
REMARK    1  A    between atoms: _1  and  _3
REMARK    2  A    between atoms: _3  and  _4
REMARK    3  A    between atoms: _6  and  _8
REMARK    4  A    between atoms: _8  and  _9
REMARK    5  A    between atoms: _8  and  _11
REMARK    6  A    between atoms: _11  and  _12
REMARK    7  A    between atoms: _15  and  _17
REMARK    8  A    between atoms: _17  and  _18
REMARK    9  A    between atoms: _20  and  _22
REMARK   10  A    between atoms: _22  and  _23
REMARK   11  A    between atoms: _22  and  _25
REMARK   12  A    between atoms: _28  and  _30
REMARK   13  A    between atoms: _30  and  _31
REMARK   14  A    between atoms: _33  and  _35
REMARK   15  A    between atoms: _35  and  _36
REMARK   16  A    between atoms: _35  and  _38
REMARK   17  A    between atoms: _38  and  _39
REMARK   18  A    between atoms: _39  and  _40
REMARK   19  A    between atoms: _43  and  _45
REMARK   20  A    between atoms: _45  and  _46
REMARK   21  A    between atoms: _45  and  _48
REMARK   22  A    between atoms: _48  and  _49
REMARK   23  A    between atoms: _52  and  _54
REMARK   24  A    between atoms: _54  and  _55
REMARK   25  A    between atoms: _54  and  _57
REMARK   26  A    between atoms: _57  and  _58
REMARK   27  A    between atoms: _58  and  _59
REMARK   28  A    between atoms: _62  and  _64
REMARK   29  A    between atoms: _64  and  _65
REMARK   30  A    between atoms: _64  and  _67
REMARK   31  A    between atoms: _67  and  _68
REMARK   32  A    between atoms: _68  and  _69
REMARK   33  A    between atoms: _69  and  _70
REMARK   34  A    between atoms: _79  and  _81
REMARK   35  A    between atoms: _81  and  _82
REMARK   36  A    between atoms: _81  and  _84
REMARK   37  A    between atoms: _84  and  _85
REMARK   38  A    between atoms: _87  and  _89
REMARK   39  A    between atoms: _89  and  _90
REMARK   40  A    between atoms: _89  and  _92
REMARK   41  A    between atoms: _92  and  _93
REMARK   42  A    between atoms: _98  and  _99
REMARK   43  A    between atoms: _101  and  _103
REMARK   44  A    between atoms: _103  and  _104
REMARK   45  A    between atoms: _103  and  _106
REMARK   46  A    between atoms: _106  and  _107
REMARK   47  A    between atoms: _110  and  _112
REMARK   48  A    between atoms: _112  and  _113
REMARK   49  A    between atoms: _112  and  _115
REMARK   50  A    between atoms: _115  and  _116
REMARK   51  A    between atoms: _119  and  _121
REMARK   52  A    between atoms: _121  and  _122
REMARK   53  A    between atoms: _121  and  _124
REMARK   54  A    between atoms: _124  and  _125
REMARK   55  A    between atoms: _130  and  _131
REMARK   56  A    between atoms: _133  and  _135
REMARK   57  A    between atoms: _135  and  _136
REMARK   58  A    between atoms: _135  and  _138
REMARK   59  A    between atoms: _138  and  _139
REMARK   60  A    between atoms: _144  and  _146
REMARK   61  A    between atoms: _146  and  _147
REMARK   62  A    between atoms: _146  and  _149
REMARK   63  A    between atoms: _149  and  _150
REMARK   64  A    between atoms: _150  and  _151
REMARK   65  A    between atoms: _151  and  _152
REMARK   66  A    between atoms: _152  and  _153
REMARK   67  A    between atoms: _157  and  _159
REMARK   68  A    between atoms: _159  and  _160
REMARK   69  A    between atoms: _159  and  _162
REMARK   70  A    between atoms: _162  and  _163
REMARK   71  A    between atoms: _168  and  _170
REMARK   72  A    between atoms: _170  and  _171
REMARK   73  A    between atoms: _170  and  _173
REMARK   74  A    between atoms: _173  and  _174
REMARK   75  A    between atoms: _179  and  _181
REMARK   76  A    between atoms: _181  and  _182
REMARK   77  A    between atoms: _181  and  _184
REMARK   78  A    between atoms: _184  and  _185
REMARK   79  A    between atoms: _185  and  _186
REMARK   80  A    between atoms: _191  and  _193
REMARK   81  A    between atoms: _193  and  _194
REMARK   82  A    between atoms: _193  and  _196
REMARK   83  A    between atoms: _196  and  _197
REMARK   84  A    between atoms: _200  and  _202
REMARK   85  A    between atoms: _202  and  _203
REMARK   86  A    between atoms: _202  and  _205
REMARK   87  A    between atoms: _205  and  _206
REMARK   88  A    between atoms: _206  and  _207
REMARK   89  A    between atoms: _210  and  _212
REMARK   90  A    between atoms: _212  and  _213
REMARK   91  A    between atoms: _212  and  _215
REMARK   92  A    between atoms: _215  and  _216
REMARK   93  A    between atoms: _219  and  _221
REMARK   94  A    between atoms: _221  and  _222
REMARK   95  A    between atoms: _221  and  _224
REMARK   96  A    between atoms: _224  and  _225
REMARK   97  A    between atoms: _230  and  _232
REMARK   98  A    between atoms: _232  and  _233
REMARK   99  A    between atoms: _236  and  _238
REMARK  100  A    between atoms: _238  and  _239
REMARK  101  A    between atoms: _238  and  _241
REMARK  102  A    between atoms: _241  and  _242
REMARK  103  A    between atoms: _247  and  _248
REMARK  104  A    between atoms: _250  and  _252
REMARK  105  A    between atoms: _252  and  _253
REMARK  106  A    between atoms: _256  and  _257
REMARK  107  A    between atoms: _262  and  _264
REMARK  108  A    between atoms: _264  and  _265
REMARK  109  A    between atoms: _264  and  _267
REMARK  110  A    between atoms: _267  and  _268
REMARK  111  A    between atoms: _271  and  _273
REMARK  112  A    between atoms: _273  and  _274
REMARK  113  A    between atoms: _276  and  _278
REMARK  114  A    between atoms: _278  and  _279
REMARK  115  A    between atoms: _278  and  _281
REMARK  116  A    between atoms: _284  and  _286
REMARK  117  A    between atoms: _286  and  _287
REMARK  118  A    between atoms: _289  and  _291
REMARK  119  A    between atoms: _291  and  _292
REMARK  120  A    between atoms: _291  and  _294
REMARK  121  A    between atoms: _294  and  _295
REMARK  122  A    between atoms: _295  and  _296
REMARK  123  A    between atoms: _296  and  _297
REMARK  124  A    between atoms: _306  and  _308
REMARK  125  A    between atoms: _308  and  _309
REMARK  126  A    between atoms: _308  and  _311
REMARK  127  A    between atoms: _311  and  _312
REMARK  128  A    between atoms: _315  and  _317
REMARK  129  A    between atoms: _317  and  _318
REMARK  130  A    between atoms: _317  and  _320
REMARK  131  A    between atoms: _320  and  _321
REMARK  132  A    between atoms: _324  and  _326
REMARK  133  A    between atoms: _326  and  _327
REMARK  134  A    between atoms: _326  and  _329
REMARK  135  A    between atoms: _329  and  _330
REMARK  136  A    between atoms: _333  and  _335
REMARK  137  A    between atoms: _335  and  _336
REMARK  138  A    between atoms: _339  and  _341
REMARK  139  A    between atoms: _341  and  _342
REMARK  140  A    between atoms: _345  and  _347
REMARK  141  A    between atoms: _347  and  _348
REMARK  142  A    between atoms: _347  and  _350
REMARK  143  A    between atoms: _350  and  _351
REMARK  144  A    between atoms: _351  and  _352
REMARK  145  A    between atoms: _357  and  _359
REMARK  146  A    between atoms: _359  and  _360
REMARK  147  A    between atoms: _359  and  _362
REMARK  148  A    between atoms: _362  and  _363
REMARK  149  A    between atoms: _366  and  _368
REMARK  150  A    between atoms: _368  and  _369
REMARK  151  A    between atoms: _368  and  _371
REMARK  152  A    between atoms: _371  and  _372
REMARK  153  A    between atoms: _375  and  _377
REMARK  154  A    between atoms: _377  and  _378
REMARK  155  A    between atoms: _377  and  _380
REMARK  156  A    between atoms: _383  and  _385
REMARK  157  A    between atoms: _385  and  _386
REMARK  158  A    between atoms: _385  and  _388
REMARK  159  A    between atoms: _388  and  _389
REMARK  160  A    between atoms: _392  and  _394
REMARK  161  A    between atoms: _394  and  _395
REMARK  162  A    between atoms: _394  and  _397
REMARK  163  A    between atoms: _397  and  _398
REMARK  164  A    between atoms: _400  and  _402
REMARK  165  A    between atoms: _402  and  _403
REMARK  166  A    between atoms: _402  and  _405
REMARK  167  A    between atoms: _405  and  _406
REMARK  168  A    between atoms: _406  and  _407
REMARK  169  A    between atoms: _407  and  _408
REMARK  170  A    between atoms: _417  and  _419
REMARK  171  A    between atoms: _419  and  _420
REMARK  172  A    between atoms: _419  and  _422
REMARK  173  A    between atoms: _422  and  _423
REMARK  174  A    between atoms: _425  and  _427
REMARK  175  A    between atoms: _427  and  _428
REMARK  176  A    between atoms: _431  and  _433
REMARK  177  A    between atoms: _433  and  _434
REMARK  178  A    between atoms: _433  and  _436
REMARK  179  A    between atoms: _436  and  _437
REMARK  180  A    between atoms: _443  and  _444
REMARK  181  A    between atoms: _449  and  _451
REMARK  182  A    between atoms: _451  and  _452
REMARK  183  A    between atoms: _451  and  _454
REMARK  184  A    between atoms: _454  and  _455
REMARK  185  A    between atoms: _455  and  _456
REMARK  186  A    between atoms: _459  and  _461
REMARK  187  A    between atoms: _461  and  _462
REMARK  188  A    between atoms: _461  and  _464
REMARK  189  A    between atoms: _464  and  _465
REMARK  190  A    between atoms: _465  and  _466
REMARK  191  A    between atoms: _466  and  _467
REMARK  192  A    between atoms: _476  and  _478
REMARK  193  A    between atoms: _478  and  _479
REMARK  194  A    between atoms: _478  and  _481
REMARK  195  A    between atoms: _481  and  _482
REMARK  196  A    between atoms: _485  and  _487
REMARK  197  A    between atoms: _487  and  _488
REMARK  198  A    between atoms: _491  and  _493
REMARK  199  A    between atoms: _493  and  _494
REMARK  200  A    between atoms: _493  and  _496
REMARK  201  A    between atoms: _496  and  _497
REMARK  202  A    between atoms: _499  and  _501
REMARK  203  A    between atoms: _501  and  _502
REMARK  204  A    between atoms: _501  and  _504
REMARK  205  A    between atoms: _504  and  _505
REMARK  206  A    between atoms: _510  and  _512
REMARK  207  A    between atoms: _512  and  _513
REMARK  208  A    between atoms: _512  and  _515
REMARK  209  A    between atoms: _515  and  _516
REMARK  210  A    between atoms: _519  and  _521
REMARK  211  A    between atoms: _521  and  _522
REMARK  212  A    between atoms: _521  and  _524
REMARK  213  A    between atoms: _524  and  _525
REMARK  214  A    between atoms: _528  and  _530
REMARK  215  A    between atoms: _530  and  _531
REMARK  216  A    between atoms: _530  and  _533
REMARK  217  A    between atoms: _533  and  _534
REMARK  218  A    between atoms: _540  and  _542
REMARK  219  A    between atoms: _542  and  _543
REMARK  220  A    between atoms: _542  and  _545
REMARK  221  A    between atoms: _545  and  _546
REMARK  222  A    between atoms: _546  and  _547
REMARK  223  A    between atoms: _547  and  _548
REMARK                            x       y       z     vdW  Elec       q    Type
REMARK                         _______ _______ _______ _____ _____    ______ ____
ROOT
ATOM      1  C   ASP A   1      16.504  53.386   3.720  0.00  0.00    +0.239 C 
ATOM      2  N   THR A   2      16.987  53.373   4.962  0.00  0.00    -0.296 N 
ATOM      3  H   THR A   2      17.095  54.278   5.464  0.00  0.00    +0.150 HD
ATOM      4  O   ASP A   1      16.397  52.359   3.004  0.00  0.00    -0.274 OA
ENDROOT
BRANCH   1   5
ATOM      5  CA  ASP A   1      16.104  54.768   3.199  0.00  0.00    +0.156 C 
BRANCH   5   6
ATOM      6  N   ASP A   1      16.845  55.115   1.981  0.00  0.00    -0.238 NA
ATOM      7  H   ASP A   1      16.773  54.486   1.156  0.00  0.00    +0.142 HD
ENDBRANCH   5   6
BRANCH   5   8
ATOM      8  CB  ASP A   1      14.618  54.827   2.871  0.00  0.00    +0.140 C 
BRANCH   8   9
ATOM      9  CG  ASP A   1      13.732  54.519   4.064  0.00  0.00    +0.367 C 
ATOM     10  OD2 ASP A   1      13.162  55.473   4.628  0.00  0.00    -0.246 OA
ATOM     11  OD1 ASP A   1      13.603  53.323   4.420  0.00  0.00    -0.246 OA
ENDBRANCH   8   9
ENDBRANCH   5   8
ENDBRANCH   1   5
BRANCH   2  12
ATOM     12  CA  THR A   2      17.374  52.134   5.654  0.00  0.00    +0.164 C 
BRANCH  12  13
ATOM     13  C   THR A   2      16.824  52.189   7.087  0.00  0.00    +0.229 C 
ATOM     14  O   THR A   2      16.002  53.073   7.405  0.00  0.00    -0.286 OA
ENDBRANCH  12  13
BRANCH  12  15
ATOM     15  CB  THR A   2      18.917  51.900   5.588  0.00  0.00    +0.136 C 
ATOM     16  CG2 THR A   2      19.679  53.055   6.250  0.00  0.00    +0.034 C 
BRANCH  15  17
ATOM     17  OG1 THR A   2      19.244  50.673   6.255  0.00  0.00    -0.382 OA
ATOM     18  HG1 THR A   2      18.777  49.922   5.810  0.00  0.00    +0.210 HD
ENDBRANCH  15  17
ENDBRANCH  12  15
ENDBRANCH   2  12
TORSDOF 8
REMARK  Name = ../refined-set-2016/2wzm/2wzm_pocket.pdb
REMARK  223 active torsions:
REMARK  status: ('A' for Active; 'I' for Inactive)
REMARK    1  A    between atoms: _1  and  _3
REMARK    2  A    between atoms: _3  and  _4
REMARK    3  A    between atoms: _6  and  _8
REMARK    4  A    between atoms: _8  and  _9
REMARK    5  A    between atoms: _8  and  _11
REMARK    6  A    between atoms: _11  and  _12
REMARK    7  A    between atoms: _15  and  _17
REMARK    8  A    between atoms: _17  and  _18
REMARK    9  A    between atoms: _20  and  _22
REMARK   10  A    between atoms: _22  and  _23
REMARK   11  A    between atoms: _22  and  _25
REMARK   12  A    between atoms: _28  and  _30
REMARK   13  A    between atoms: _30  and  _31
REMARK   14  A    between atoms: _33  and  _35
REMARK   15  A    between atoms: _35  and  _36
REMARK   16  A    between atoms: _35  and  _38
REMARK   17  A    between atoms: _38  and  _39
REMARK   18  A    between atoms: _39  and  _40
REMARK   19  A    between atoms: _43  and  _45
REMARK   20  A    between atoms: _45  and  _46
REMARK   21  A    between atoms: _45  and  _48
REMARK   22  A    between atoms: _48  and  _49
REMARK   23  A    between atoms: _52  and  _54
REMARK   24  A    between atoms: _54  and  _55
REMARK   25  A    between atoms: _54  and  _57
REMARK   26  A    between atoms: _57  and  _58
REMARK   27  A    between atoms: _58  and  _59
REMARK   28  A    between atoms: _62  and  _64
REMARK   29  A    between atoms: _64  and  _65
REMARK   30  A    between atoms: _64  and  _67
REMARK   31  A    between atoms: _67  and  _68
REMARK   32  A    between atoms: _68  and  _69
REMARK   33  A    between atoms: _69  and  _70
REMARK   34  A    between atoms: _79  and  _81
REMARK   35  A    between atoms: _81  and  _82
REMARK   36  A    between atoms: _81  and  _84
REMARK   37  A    between atoms: _84  and  _85
REMARK   38  A    between atoms: _87  and  _89
REMARK   39  A    between atoms: _89  and  _90
REMARK   40  A    between atoms: _89  and  _92
REMARK   41  A    between atoms: _92  and  _93
REMARK   42  A    between atoms: _98  and  _99
REMARK   43  A    between atoms: _101  and  _103
REMARK   44  A    between atoms: _103  and  _104
REMARK   45  A    between atoms: _103  and  _106
REMARK   46  A    between atoms: _106  and  _107
REMARK   47  A    between atoms: _110  and  _112
REMARK   48  A    between atoms: _112  and  _113
REMARK   49  A    between atoms: _112  and  _115
REMARK   50  A    between atoms: _115  and  _116
REMARK   51  A    between atoms: _119  and  _121
REMARK   52  A    between atoms: _121  and  _122
REMARK   53  A    between atoms: _121  and  _124
REMARK   54  A    between atoms: _124  and  _125
REMARK   55  A    between atoms: _130  and  _131
REMARK   56  A    between atoms: _133  and  _135
REMARK   57  A    between atoms: _135  and  _136
REMARK   58  A    between atoms: _135  and  _138
REMARK   59  A    between atoms: _138  and  _139
REMARK   60  A    between atoms: _144  and  _146
REMARK   61  A    between atoms: _146  and  _147
REMARK   62  A    between atoms: _146  and  _149
REMARK   63  A    between atoms: _149  and  _150
REMARK   64  A    between atoms: _150  and  _151
REMARK   65  A    between atoms: _151  and  _152
REMARK   66  A    between atoms: _152  and  _153
REMARK   67  A    between atoms: _157  and  _159
REMARK   68  A    between atoms: _159  and  _160
REMARK   69  A    between atoms: _159  and  _162
REMARK   70  A    between atoms: _162  and  _163
REMARK   71  A    between atoms: _168  and  _170
REMARK   72  A    between atoms: _170  and  _171
REMARK   73  A    between atoms: _170  and  _173
REMARK   74  A    between atoms: _173  and  _174
REMARK   75  A    between atoms: _179  and  _181
REMARK   76  A    between atoms: _181  and  _182
REMARK   77  A    between atoms: _181  and  _184
REMARK   78  A    between atoms: _184  and  _185
REMARK   79  A    between atoms: _185  and  _186
REMARK   80  A    between atoms: _191  and  _193
REMARK   81  A    between atoms: _193  and  _194
REMARK   82  A    between atoms: _193  and  _196
REMARK   83  A    between atoms: _196  and  _197
REMARK   84  A    between atoms: _200  and  _202
REMARK   85  A    between atoms: _202  and  _203
REMARK   86  A    between atoms: _202  and  _205
REMARK   87  A    between atoms: _205  and  _206
REMARK   88  A    between atoms: _206  and  _207
REMARK   89  A    between atoms: _210  and  _212
REMARK   90  A    between atoms: _212  and  _213
REMARK   91  A    between atoms: _212  and  _215
REMARK   92  A    between atoms: _215  and  _216
REMARK   93  A    between atoms: _219  and  _221
REMARK   94  A    between atoms: _221  and  _222
REMARK   95  A    between atoms: _221  and  _224
REMARK   96  A    between atoms: _224  and  _225
REMARK   97  A    between atoms: _230  and  _232
REMARK   98  A    between atoms: _232  and  _233
REMARK   99  A    between atoms: _236  and  _238
REMARK  100  A    between atoms: _238  and  _239
REMARK  101  A    between atoms: _238  and  _241
REMARK  102  A    between atoms: _241  and  _242
REMARK  103  A    between atoms: _247  and  _248
REMARK  104  A    between atoms: _250  and  _252
REMARK  105  A    between atoms: _252  and  _253
REMARK  106  A    between atoms: _256  and  _257
REMARK  107  A    between atoms: _262  and  _264
REMARK  108  A    between atoms: _264  and  _265
REMARK  109  A    between atoms: _264  and  _267
REMARK  110  A    between atoms: _267  and  _268
REMARK  111  A    between atoms: _271  and  _273
REMARK  112  A    between atoms: _273  and  _274
REMARK  113  A    between atoms: _276  and  _278
REMARK  114  A    between atoms: _278  and  _279
REMARK  115  A    between atoms: _278  and  _281
REMARK  116  A    between atoms: _284  and  _286
REMARK  117  A    between atoms: _286  and  _287
REMARK  118  A    between atoms: _289  and  _291
REMARK  119  A    between atoms: _291  and  _292
REMARK  120  A    between atoms: _291  and  _294
REMARK  121  A    between atoms: _294  and  _295
REMARK  122  A    between atoms: _295  and  _296
REMARK  123  A    between atoms: _296  and  _297
REMARK  124  A    between atoms: _306  and  _308
REMARK  125  A    between atoms: _308  and  _309
REMARK  126  A    between atoms: _308  and  _311
REMARK  127  A    between atoms: _311  and  _312
REMARK  128  A    between atoms: _315  and  _317
REMARK  129  A    between atoms: _317  and  _318
REMARK  130  A    between atoms: _317  and  _320
REMARK  131  A    between atoms: _320  and  _321
REMARK  132  A    between atoms: _324  and  _326
REMARK  133  A    between atoms: _326  and  _327
REMARK  134  A    between atoms: _326  and  _329
REMARK  135  A    between atoms: _329  and  _330
REMARK  136  A    between atoms: _333  and  _335
REMARK  137  A    between atoms: _335  and  _336
REMARK  138  A    between atoms: _339  and  _341
REMARK  139  A    between atoms: _341  and  _342
REMARK  140  A    between atoms: _345  and  _347
REMARK  141  A    between atoms: _347  and  _348
REMARK  142  A    between atoms: _347  and  _350
REMARK  143  A    between atoms: _350  and  _351
REMARK  144  A    between atoms: _351  and  _352
REMARK  145  A    between atoms: _357  and  _359
REMARK  146  A    between atoms: _359  and  _360
REMARK  147  A    between atoms: _359  and  _362
REMARK  148  A    between atoms: _362  and  _363
REMARK  149  A    between atoms: _366  and  _368
REMARK  150  A    between atoms: _368  and  _369
REMARK  151  A    between atoms: _368  and  _371
REMARK  152  A    between atoms: _371  and  _372
REMARK  153  A    between atoms: _375  and  _377
REMARK  154  A    between atoms: _377  and  _378
REMARK  155  A    between atoms: _377  and  _380
REMARK  156  A    between atoms: _383  and  _385
REMARK  157  A    between atoms: _385  and  _386
REMARK  158  A    between atoms: _385  and  _388
REMARK  159  A    between atoms: _388  and  _389
REMARK  160  A    between atoms: _392  and  _394
REMARK  161  A    between atoms: _394  and  _395
REMARK  162  A    between atoms: _394  and  _397
REMARK  163  A    between atoms: _397  and  _398
REMARK  164  A    between atoms: _400  and  _402
REMARK  165  A    between atoms: _402  and  _403
REMARK  166  A    between atoms: _402  and  _405
REMARK  167  A    between atoms: _405  and  _406
REMARK  168  A    between atoms: _406  and  _407
REMARK  169  A    between atoms: _407  and  _408
REMARK  170  A    between atoms: _417  and  _419
REMARK  171  A    between atoms: _419  and  _420
REMARK  172  A    between atoms: _419  and  _422
REMARK  173  A    between atoms: _422  and  _423
REMARK  174  A    between atoms: _425  and  _427
REMARK  175  A    between atoms: _427  and  _428
REMARK  176  A    between atoms: _431  and  _433
REMARK  177  A    between atoms: _433  and  _434
REMARK  178  A    between atoms: _433  and  _436
REMARK  179  A    between atoms: _436  and  _437
REMARK  180  A    between atoms: _443  and  _444
REMARK  181  A    between atoms: _449  and  _451
REMARK  182  A    between atoms: _451  and  _452
REMARK  183  A    between atoms: _451  and  _454
REMARK  184  A    between atoms: _454  and  _455
REMARK  185  A    between atoms: _455  and  _456
REMARK  186  A    between atoms: _459  and  _461
REMARK  187  A    between atoms: _461  and  _462
REMARK  188  A    between atoms: _461  and  _464
REMARK  189  A    between atoms: _464  and  _465
REMARK  190  A    between atoms: _465  and  _466
REMARK  191  A    between atoms: _466  and  _467
REMARK  192  A    between atoms: _476  and  _478
REMARK  193  A    between atoms: _478  and  _479
REMARK  194  A    between atoms: _478  and  _481
REMARK  195  A    between atoms: _481  and  _482
REMARK  196  A    between atoms: _485  and  _487
REMARK  197  A    between atoms: _487  and  _488
REMARK  198  A    between atoms: _491  and  _493
REMARK  199  A    between atoms: _493  and  _494
REMARK  200  A    between atoms: _493  and  _496
REMARK  201  A    between atoms: _496  and  _497
REMARK  202  A    between atoms: _499  and  _501
REMARK  203  A    between atoms: _501  and  _502
REMARK  204  A    between atoms: _501  and  _504
REMARK  205  A    between atoms: _504  and  _505
REMARK  206  A    between atoms: _510  and  _512
REMARK  207  A    between atoms: _512  and  _513
REMARK  208  A    between atoms: _512  and  _515
REMARK  209  A    between atoms: _515  and  _516
REMARK  210  A    between atoms: _519  and  _521
REMARK  211  A    between atoms: _521  and  _522
REMARK  212  A    between atoms: _521  and  _524
REMARK  213  A    between atoms: _524  and  _525
REMARK  214  A    between atoms: _528  and  _530
REMARK  215  A    between atoms: _530  and  _531
REMARK  216  A    between atoms: _530  and  _533
REMARK  217  A    between atoms: _533  and  _534
REMARK  218  A    between atoms: _540  and  _542
REMARK  219  A    between atoms: _542  and  _543
REMARK  220  A    between atoms: _542  and  _545
REMARK  221  A    between atoms: _545  and  _546
REMARK  222  A    between atoms: _546  and  _547
REMARK  223  A    between atoms: _547  and  _548
REMARK                            x       y       z     vdW  Elec       q    Type
REMARK                         _______ _______ _______ _____ _____    ______ ____
ROOT
ATOM      1  CG  TYR A   1      15.743  47.454   7.417  0.00  0.00    -0.020 A 
ATOM      2  CD2 TYR A   1      14.489  47.035   7.886  0.00  0.00    -0.001 A 
ATOM      3  CE2 TYR A   1      13.313  47.798   7.614  0.00  0.00    +0.036 A 
ATOM      4  CZ  TYR A   1      13.420  48.993   6.878  0.00  0.00    +0.134 A 
ATOM      5  CE1 TYR A   1      14.659  49.404   6.387  0.00  0.00    +0.036 A 
ATOM      6  CD1 TYR A   1      15.803  48.626   6.647  0.00  0.00    -0.001 A 
ENDROOT
BRANCH   4   7
ATOM      7  OH  TYR A   1      12.307  49.790   6.606  0.00  0.00    -0.506 OA
ATOM      8  HH  TYR A   1      11.502  49.381   7.012  0.00  0.00    +0.292 HD
ENDBRANCH   4   7
BRANCH   1   9
ATOM      9  CB  TYR A   1      17.030  46.639   7.660  0.00  0.00    +0.051 C 
BRANCH   9  10
ATOM     10  CA  TYR A   1      17.178  45.853   8.989  0.00  0.00    +0.137 C 
BRANCH  10  11
ATOM     11  N   TYR A   1      16.884  46.669  10.188  0.00  0.00    -0.239 NA
ATOM     12  H   TYR A   1      16.994  47.703  10.152  0.00  0.00    +0.142 HD
ENDBRANCH  10  11
BRANCH  10  13
ATOM     13  C   TYR A   1      18.578  45.219   9.061  0.00  0.00    +0.224 C 
ATOM     14  O   TYR A   1      18.859  44.258   8.335  0.00  0.00    -0.287 OA
ENDBRANCH  10  13
ENDBRANCH   9  10
ENDBRANCH   1   9
TORSDOF 5
REMARK  Name = ../refined-set-2016/2wzm/2wzm_pocket.pdb
REMARK  223 active torsions:
REMARK  status: ('A' for Active; 'I' for Inactive)
REMARK    1  A    between atoms: _1  and  _3
REMARK    2  A    between atoms: _3  and  _4
REMARK    3  A    between atoms: _6  and  _8
REMARK    4  A    between atoms: _8  and  _9
REMARK    5  A    between atoms: _8  and  _11
REMARK    6  A    between atoms: _11  and  _12
REMARK    7  A    between atoms: _15  and  _17
REMARK    8  A    between atoms: _17  and  _18
REMARK    9  A    between atoms: _20  and  _22
REMARK   10  A    between atoms: _22  and  _23
REMARK   11  A    between atoms: _22  and  _25
REMARK   12  A    between atoms: _28  and  _30
REMARK   13  A    between atoms: _30  and  _31
REMARK   14  A    between atoms: _33  and  _35
REMARK   15  A    between atoms: _35  and  _36
REMARK   16  A    between atoms: _35  and  _38
REMARK   17  A    between atoms: _38  and  _39
REMARK   18  A    between atoms: _39  and  _40
REMARK   19  A    between atoms: _43  and  _45
REMARK   20  A    between atoms: _45  and  _46
REMARK   21  A    between atoms: _45  and  _48
REMARK   22  A    between atoms: _48  and  _49
REMARK   23  A    between atoms: _52  and  _54
REMARK   24  A    between atoms: _54  and  _55
REMARK   25  A    between atoms: _54  and  _57
REMARK   26  A    between atoms: _57  and  _58
REMARK   27  A    between atoms: _58  and  _59
REMARK   28  A    between atoms: _62  and  _64
REMARK   29  A    between atoms: _64  and  _65
REMARK   30  A    between atoms: _64  and  _67
REMARK   31  A    between atoms: _67  and  _68
REMARK   32  A    between atoms: _68  and  _69
REMARK   33  A    between atoms: _69  and  _70
REMARK   34  A    between atoms: _79  and  _81
REMARK   35  A    between atoms: _81  and  _82
REMARK   36  A    between atoms: _81  and  _84
REMARK   37  A    between atoms: _84  and  _85
REMARK   38  A    between atoms: _87  and  _89
REMARK   39  A    between atoms: _89  and  _90
REMARK   40  A    between atoms: _89  and  _92
REMARK   41  A    between atoms: _92  and  _93
REMARK   42  A    between atoms: _98  and  _99
REMARK   43  A    between atoms: _101  and  _103
REMARK   44  A    between atoms: _103  and  _104
REMARK   45  A    between atoms: _103  and  _106
REMARK   46  A    between atoms: _106  and  _107
REMARK   47  A    between atoms: _110  and  _112
REMARK   48  A    between atoms: _112  and  _113
REMARK   49  A    between atoms: _112  and  _115
REMARK   50  A    between atoms: _115  and  _116
REMARK   51  A    between atoms: _119  and  _121
REMARK   52  A    between atoms: _121  and  _122
REMARK   53  A    between atoms: _121  and  _124
REMARK   54  A    between atoms: _124  and  _125
REMARK   55  A    between atoms: _130  and  _131
REMARK   56  A    between atoms: _133  and  _135
REMARK   57  A    between atoms: _135  and  _136
REMARK   58  A    between atoms: _135  and  _138
REMARK   59  A    between atoms: _138  and  _139
REMARK   60  A    between atoms: _144  and  _146
REMARK   61  A    between atoms: _146  and  _147
REMARK   62  A    between atoms: _146  and  _149
REMARK   63  A    between atoms: _149  and  _150
REMARK   64  A    between atoms: _150  and  _151
REMARK   65  A    between atoms: _151  and  _152
REMARK   66  A    between atoms: _152  and  _153
REMARK   67  A    between atoms: _157  and  _159
REMARK   68  A    between atoms: _159  and  _160
REMARK   69  A    between atoms: _159  and  _162
REMARK   70  A    between atoms: _162  and  _163
REMARK   71  A    between atoms: _168  and  _170
REMARK   72  A    between atoms: _170  and  _171
REMARK   73  A    between atoms: _170  and  _173
REMARK   74  A    between atoms: _173  and  _174
REMARK   75  A    between atoms: _179  and  _181
REMARK   76  A    between atoms: _181  and  _182
REMARK   77  A    between atoms: _181  and  _184
REMARK   78  A    between atoms: _184  and  _185
REMARK   79  A    between atoms: _185  and  _186
REMARK   80  A    between atoms: _191  and  _193
REMARK   81  A    between atoms: _193  and  _194
REMARK   82  A    between atoms: _193  and  _196
REMARK   83  A    between atoms: _196  and  _197
REMARK   84  A    between atoms: _200  and  _202
REMARK   85  A    between atoms: _202  and  _203
REMARK   86  A    between atoms: _202  and  _205
REMARK   87  A    between atoms: _205  and  _206
REMARK   88  A    between atoms: _206  and  _207
REMARK   89  A    between atoms: _210  and  _212
REMARK   90  A    between atoms: _212  and  _213
REMARK   91  A    between atoms: _212  and  _215
REMARK   92  A    between atoms: _215  and  _216
REMARK   93  A    between atoms: _219  and  _221
REMARK   94  A    between atoms: _221  and  _222
REMARK   95  A    between atoms: _221  and  _224
REMARK   96  A    between atoms: _224  and  _225
REMARK   97  A    between atoms: _230  and  _232
REMARK   98  A    between atoms: _232  and  _233
REMARK   99  A    between atoms: _236  and  _238
REMARK  100  A    between atoms: _238  and  _239
REMARK  101  A    between atoms: _238  and  _241
REMARK  102  A    between atoms: _241  and  _242
REMARK  103  A    between atoms: _247  and  _248
REMARK  104  A    between atoms: _250  and  _252
REMARK  105  A    between atoms: _252  and  _253
REMARK  106  A    between atoms: _256  and  _257
REMARK  107  A    between atoms: _262  and  _264
REMARK  108  A    between atoms: _264  and  _265
REMARK  109  A    between atoms: _264  and  _267
REMARK  110  A    between atoms: _267  and  _268
REMARK  111  A    between atoms: _271  and  _273
REMARK  112  A    between atoms: _273  and  _274
REMARK  113  A    between atoms: _276  and  _278
REMARK  114  A    between atoms: _278  and  _279
REMARK  115  A    between atoms: _278  and  _281
REMARK  116  A    between atoms: _284  and  _286
REMARK  117  A    between atoms: _286  and  _287
REMARK  118  A    between atoms: _289  and  _291
REMARK  119  A    between atoms: _291  and  _292
REMARK  120  A    between atoms: _291  and  _294
REMARK  121  A    between atoms: _294  and  _295
REMARK  122  A    between atoms: _295  and  _296
REMARK  123  A    between atoms: _296  and  _297
REMARK  124  A    between atoms: _306  and  _308
REMARK  125  A    between atoms: _308  and  _309
REMARK  126  A    between atoms: _308  and  _311
REMARK  127  A    between atoms: _311  and  _312
REMARK  128  A    between atoms: _315  and  _317
REMARK  129  A    between atoms: _317  and  _318
REMARK  130  A    between atoms: _317  and  _320
REMARK  131  A    between atoms: _320  and  _321
REMARK  132  A    between atoms: _324  and  _326
REMARK  133  A    between atoms: _326  and  _327
REMARK  134  A    between atoms: _326  and  _329
REMARK  135  A    between atoms: _329  and  _330
REMARK  136  A    between atoms: _333  and  _335
REMARK  137  A    between atoms: _335  and  _336
REMARK  138  A    between atoms: _339  and  _341
REMARK  139  A    between atoms: _341  and  _342
REMARK  140  A    between atoms: _345  and  _347
REMARK  141  A    between atoms: _347  and  _348
REMARK  142  A    between atoms: _347  and  _350
REMARK  143  A    between atoms: _350  and  _351
REMARK  144  A    between atoms: _351  and  _352
REMARK  145  A    between atoms: _357  and  _359
REMARK  146  A    between atoms: _359  and  _360
REMARK  147  A    between atoms: _359  and  _362
REMARK  148  A    between atoms: _362  and  _363
REMARK  149  A    between atoms: _366  and  _368
REMARK  150  A    between atoms: _368  and  _369
REMARK  151  A    between atoms: _368  and  _371
REMARK  152  A    between atoms: _371  and  _372
REMARK  153  A    between atoms: _375  and  _377
REMARK  154  A    between atoms: _377  and  _378
REMARK  155  A    between atoms: _377  and  _380
REMARK  156  A    between atoms: _383  and  _385
REMARK  157  A    between atoms: _385  and  _386
REMARK  158  A    between atoms: _385  and  _388
REMARK  159  A    between atoms: _388  and  _389
REMARK  160  A    between atoms: _392  and  _394
REMARK  161  A    between atoms: _394  and  _395
REMARK  162  A    between atoms: _394  and  _397
REMARK  163  A    between atoms: _397  and  _398
REMARK  164  A    between atoms: _400  and  _402
REMARK  165  A    between atoms: _402  and  _403
REMARK  166  A    between atoms: _402  and  _405
REMARK  167  A    between atoms: _405  and  _406
REMARK  168  A    between atoms: _406  and  _407
REMARK  169  A    between atoms: _407  and  _408
REMARK  170  A    between atoms: _417  and  _419
REMARK  171  A    between atoms: _419  and  _420
REMARK  172  A    between atoms: _419  and  _422
REMARK  173  A    between atoms: _422  and  _423
REMARK  174  A    between atoms: _425  and  _427
REMARK  175  A    between atoms: _427  and  _428
REMARK  176  A    between atoms: _431  and  _433
REMARK  177  A    between atoms: _433  and  _434
REMARK  178  A    between atoms: _433  and  _436
REMARK  179  A    between atoms: _436  and  _437
REMARK  180  A    between atoms: _443  and  _444
REMARK  181  A    between atoms: _449  and  _451
REMARK  182  A    between atoms: _451  and  _452
REMARK  183  A    between atoms: _451  and  _454
REMARK  184  A    between atoms: _454  and  _455
REMARK  185  A    between atoms: _455  and  _456
REMARK  186  A    between atoms: _459  and  _461
REMARK  187  A    between atoms: _461  and  _462
REMARK  188  A    between atoms: _461  and  _464
REMARK  189  A    between atoms: _464  and  _465
REMARK  190  A    between atoms: _465  and  _466
REMARK  191  A    between atoms: _466  and  _467
REMARK  192  A    between atoms: _476  and  _478
REMARK  193  A    between atoms: _478  and  _479
REMARK  194  A    between atoms: _478  and  _481
REMARK  195  A    between atoms: _481  and  _482
REMARK  196  A    between atoms: _485  and  _487
REMARK  197  A    between atoms: _487  and  _488
REMARK  198  A    between atoms: _491  and  _493
REMARK  199  A    between atoms: _493  and  _494
REMARK  200  A    between atoms: _493  and  _496
REMARK  201  A    between atoms: _496  and  _497
REMARK  202  A    between atoms: _499  and  _501
REMARK  203  A    between atoms: _501  and  _502
REMARK  204  A    between atoms: _501  and  _504
REMARK  205  A    between atoms: _504  and  _505
REMARK  206  A    between atoms: _510  and  _512
REMARK  207  A    between atoms: _512  and  _513
REMARK  208  A    between atoms: _512  and  _515
REMARK  209  A    between atoms: _515  and  _516
REMARK  210  A    between atoms: _519  and  _521
REMARK  211  A    between atoms: _521  and  _522
REMARK  212  A    between atoms: _521  and  _524
REMARK  213  A    between atoms: _524  and  _525
REMARK  214  A    between atoms: _528  and  _530
REMARK  215  A    between atoms: _530  and  _531
REMARK  216  A    between atoms: _530  and  _533
REMARK  217  A    between atoms: _533  and  _534
REMARK  218  A    between atoms: _540  and  _542
REMARK  219  A    between atoms: _542  and  _543
REMARK  220  A    between atoms: _542  and  _545
REMARK  221  A    between atoms: _545  and  _546
REMARK  222  A    between atoms: _546  and  _547
REMARK  223  A    between atoms: _547  and  _548
REMARK                            x       y       z     vdW  Elec       q    Type
REMARK                         _______ _______ _______ _____ _____    ______ ____
ROOT
ATOM      1  CB  ASN A   1      21.511  46.201   5.617  0.00  0.00    +0.110 C 
ENDROOT
BRANCH   1   2
ATOM      2  CG  ASN A   1      20.155  46.853   5.450  0.00  0.00    +0.221 C 
ATOM      3  OD1 ASN A   1      19.930  47.990   5.907  0.00  0.00    -0.275 OA
ATOM      4  ND2 ASN A   1      19.237  46.141   4.813  0.00  0.00    -0.329 N 
ATOM      5 HD21 ASN A   1      18.281  46.527   4.677  0.00  0.00    +0.145 HD
ATOM      6 HD22 ASN A   1      19.472  45.196   4.449  0.00  0.00    +0.145 HD
ENDBRANCH   1   2
BRANCH   1   7
ATOM      7  CA  ASN A   1      22.220  46.635   6.900  0.00  0.00    +0.142 C 
BRANCH   7   8
ATOM      8  N   ASN A   1      21.373  46.345   8.063  0.00  0.00    -0.239 NA
ATOM      9  H   ASN A   1      20.420  46.758   8.112  0.00  0.00    +0.142 HD
ENDBRANCH   7   8
BRANCH   7  10
ATOM     10  C   ASN A   1      22.732  48.076   6.743  0.00  0.00    +0.225 C 
ATOM     11  O   ASN A   1      23.184  48.454   5.661  0.00  0.00    -0.287 OA
ENDBRANCH   7  10
ENDBRANCH   1   7
TORSDOF 4
REMARK  Name = ../refined-set-2016/2wzm/2wzm_pocket.pdb
REMARK  223 active torsions:
REMARK  status: ('A' for Active; 'I' for Inactive)
REMARK    1  A    between atoms: _1  and  _3
REMARK    2  A    between atoms: _3  and  _4
REMARK    3  A    between atoms: _6  and  _8
REMARK    4  A    between atoms: _8  and  _9
REMARK    5  A    between atoms: _8  and  _11
REMARK    6  A    between atoms: _11  and  _12
REMARK    7  A    between atoms: _15  and  _17
REMARK    8  A    between atoms: _17  and  _18
REMARK    9  A    between atoms: _20  and  _22
REMARK   10  A    between atoms: _22  and  _23
REMARK   11  A    between atoms: _22  and  _25
REMARK   12  A    between atoms: _28  and  _30
REMARK   13  A    between atoms: _30  and  _31
REMARK   14  A    between atoms: _33  and  _35
REMARK   15  A    between atoms: _35  and  _36
REMARK   16  A    between atoms: _35  and  _38
REMARK   17  A    between atoms: _38  and  _39
REMARK   18  A    between atoms: _39  and  _40
REMARK   19  A    between atoms: _43  and  _45
REMARK   20  A    between atoms: _45  and  _46
REMARK   21  A    between atoms: _45  and  _48
REMARK   22  A    between atoms: _48  and  _49
REMARK   23  A    between atoms: _52  and  _54
REMARK   24  A    between atoms: _54  and  _55
REMARK   25  A    between atoms: _54  and  _57
REMARK   26  A    between atoms: _57  and  _58
REMARK   27  A    between atoms: _58  and  _59
REMARK   28  A    between atoms: _62  and  _64
REMARK   29  A    between atoms: _64  and  _65
REMARK   30  A    between atoms: _64  and  _67
REMARK   31  A    between atoms: _67  and  _68
REMARK   32  A    between atoms: _68  and  _69
REMARK   33  A    between atoms: _69  and  _70
REMARK   34  A    between atoms: _79  and  _81
REMARK   35  A    between atoms: _81  and  _82
REMARK   36  A    between atoms: _81  and  _84
REMARK   37  A    between atoms: _84  and  _85
REMARK   38  A    between atoms: _87  and  _89
REMARK   39  A    between atoms: _89  and  _90
REMARK   40  A    between atoms: _89  and  _92
REMARK   41  A    between atoms: _92  and  _93
REMARK   42  A    between atoms: _98  and  _99
REMARK   43  A    between atoms: _101  and  _103
REMARK   44  A    between atoms: _103  and  _104
REMARK   45  A    between atoms: _103  and  _106
REMARK   46  A    between atoms: _106  and  _107
REMARK   47  A    between atoms: _110  and  _112
REMARK   48  A    between atoms: _112  and  _113
REMARK   49  A    between atoms: _112  and  _115
REMARK   50  A    between atoms: _115  and  _116
REMARK   51  A    between atoms: _119  and  _121
REMARK   52  A    between atoms: _121  and  _122
REMARK   53  A    between atoms: _121  and  _124
REMARK   54  A    between atoms: _124  and  _125
REMARK   55  A    between atoms: _130  and  _131
REMARK   56  A    between atoms: _133  and  _135
REMARK   57  A    between atoms: _135  and  _136
REMARK   58  A    between atoms: _135  and  _138
REMARK   59  A    between atoms: _138  and  _139
REMARK   60  A    between atoms: _144  and  _146
REMARK   61  A    between atoms: _146  and  _147
REMARK   62  A    between atoms: _146  and  _149
REMARK   63  A    between atoms: _149  and  _150
REMARK   64  A    between atoms: _150  and  _151
REMARK   65  A    between atoms: _151  and  _152
REMARK   66  A    between atoms: _152  and  _153
REMARK   67  A    between atoms: _157  and  _159
REMARK   68  A    between atoms: _159  and  _160
REMARK   69  A    between atoms: _159  and  _162
REMARK   70  A    between atoms: _162  and  _163
REMARK   71  A    between atoms: _168  and  _170
REMARK   72  A    between atoms: _170  and  _171
REMARK   73  A    between atoms: _170  and  _173
REMARK   74  A    between atoms: _173  and  _174
REMARK   75  A    between atoms: _179  and  _181
REMARK   76  A    between atoms: _181  and  _182
REMARK   77  A    between atoms: _181  and  _184
REMARK   78  A    between atoms: _184  and  _185
REMARK   79  A    between atoms: _185  and  _186
REMARK   80  A    between atoms: _191  and  _193
REMARK   81  A    between atoms: _193  and  _194
REMARK   82  A    between atoms: _193  and  _196
REMARK   83  A    between atoms: _196  and  _197
REMARK   84  A    between atoms: _200  and  _202
REMARK   85  A    between atoms: _202  and  _203
REMARK   86  A    between atoms: _202  and  _205
REMARK   87  A    between atoms: _205  and  _206
REMARK   88  A    between atoms: _206  and  _207
REMARK   89  A    between atoms: _210  and  _212
REMARK   90  A    between atoms: _212  and  _213
REMARK   91  A    between atoms: _212  and  _215
REMARK   92  A    between atoms: _215  and  _216
REMARK   93  A    between atoms: _219  and  _221
REMARK   94  A    between atoms: _221  and  _222
REMARK   95  A    between atoms: _221  and  _224
REMARK   96  A    between atoms: _224  and  _225
REMARK   97  A    between atoms: _230  and  _232
REMARK   98  A    between atoms: _232  and  _233
REMARK   99  A    between atoms: _236  and  _238
REMARK  100  A    between atoms: _238  and  _239
REMARK  101  A    between atoms: _238  and  _241
REMARK  102  A    between atoms: _241  and  _242
REMARK  103  A    between atoms: _247  and  _248
REMARK  104  A    between atoms: _250  and  _252
REMARK  105  A    between atoms: _252  and  _253
REMARK  106  A    between atoms: _256  and  _257
REMARK  107  A    between atoms: _262  and  _264
REMARK  108  A    between atoms: _264  and  _265
REMARK  109  A    between atoms: _264  and  _267
REMARK  110  A    between atoms: _267  and  _268
REMARK  111  A    between atoms: _271  and  _273
REMARK  112  A    between atoms: _273  and  _274
REMARK  113  A    between atoms: _276  and  _278
REMARK  114  A    between atoms: _278  and  _279
REMARK  115  A    between atoms: _278  and  _281
REMARK  116  A    between atoms: _284  and  _286
REMARK  117  A    between atoms: _286  and  _287
REMARK  118  A    between atoms: _289  and  _291
REMARK  119  A    between atoms: _291  and  _292
REMARK  120  A    between atoms: _291  and  _294
REMARK  121  A    between atoms: _294  and  _295
REMARK  122  A    between atoms: _295  and  _296
REMARK  123  A    between atoms: _296  and  _297
REMARK  124  A    between atoms: _306  and  _308
REMARK  125  A    between atoms: _308  and  _309
REMARK  126  A    between atoms: _308  and  _311
REMARK  127  A    between atoms: _311  and  _312
REMARK  128  A    between atoms: _315  and  _317
REMARK  129  A    between atoms: _317  and  _318
REMARK  130  A    between atoms: _317  and  _320
REMARK  131  A    between atoms: _320  and  _321
REMARK  132  A    between atoms: _324  and  _326
REMARK  133  A    between atoms: _326  and  _327
REMARK  134  A    between atoms: _326  and  _329
REMARK  135  A    between atoms: _329  and  _330
REMARK  136  A    between atoms: _333  and  _335
REMARK  137  A    between atoms: _335  and  _336
REMARK  138  A    between atoms: _339  and  _341
REMARK  139  A    between atoms: _341  and  _342
REMARK  140  A    between atoms: _345  and  _347
REMARK  141  A    between atoms: _347  and  _348
REMARK  142  A    between atoms: _347  and  _350
REMARK  143  A    between atoms: _350  and  _351
REMARK  144  A    between atoms: _351  and  _352
REMARK  145  A    between atoms: _357  and  _359
REMARK  146  A    between atoms: _359  and  _360
REMARK  147  A    between atoms: _359  and  _362
REMARK  148  A    between atoms: _362  and  _363
REMARK  149  A    between atoms: _366  and  _368
REMARK  150  A    between atoms: _368  and  _369
REMARK  151  A    between atoms: _368  and  _371
REMARK  152  A    between atoms: _371  and  _372
REMARK  153  A    between atoms: _375  and  _377
REMARK  154  A    between atoms: _377  and  _378
REMARK  155  A    between atoms: _377  and  _380
REMARK  156  A    between atoms: _383  and  _385
REMARK  157  A    between atoms: _385  and  _386
REMARK  158  A    between atoms: _385  and  _388
REMARK  159  A    between atoms: _388  and  _389
REMARK  160  A    between atoms: _392  and  _394
REMARK  161  A    between atoms: _394  and  _395
REMARK  162  A    between atoms: _394  and  _397
REMARK  163  A    between atoms: _397  and  _398
REMARK  164  A    between atoms: _400  and  _402
REMARK  165  A    between atoms: _402  and  _403
REMARK  166  A    between atoms: _402  and  _405
REMARK  167  A    between atoms: _405  and  _406
REMARK  168  A    between atoms: _406  and  _407
REMARK  169  A    between atoms: _407  and  _408
REMARK  170  A    between atoms: _417  and  _419
REMARK  171  A    between atoms: _419  and  _420
REMARK  172  A    between atoms: _419  and  _422
REMARK  173  A    between atoms: _422  and  _423
REMARK  174  A    between atoms: _425  and  _427
REMARK  175  A    between atoms: _427  and  _428
REMARK  176  A    between atoms: _431  and  _433
REMARK  177  A    between atoms: _433  and  _434
REMARK  178  A    between atoms: _433  and  _436
REMARK  179  A    between atoms: _436  and  _437
REMARK  180  A    between atoms: _443  and  _444
REMARK  181  A    between atoms: _449  and  _451
REMARK  182  A    between atoms: _451  and  _452
REMARK  183  A    between atoms: _451  and  _454
REMARK  184  A    between atoms: _454  and  _455
REMARK  185  A    between atoms: _455  and  _456
REMARK  186  A    between atoms: _459  and  _461
REMARK  187  A    between atoms: _461  and  _462
REMARK  188  A    between atoms: _461  and  _464
REMARK  189  A    between atoms: _464  and  _465
REMARK  190  A    between atoms: _465  and  _466
REMARK  191  A    between atoms: _466  and  _467
REMARK  192  A    between atoms: _476  and  _478
REMARK  193  A    between atoms: _478  and  _479
REMARK  194  A    between atoms: _478  and  _481
REMARK  195  A    between atoms: _481  and  _482
REMARK  196  A    between atoms: _485  and  _487
REMARK  197  A    between atoms: _487  and  _488
REMARK  198  A    between atoms: _491  and  _493
REMARK  199  A    between atoms: _493  and  _494
REMARK  200  A    between atoms: _493  and  _496
REMARK  201  A    between atoms: _496  and  _497
REMARK  202  A    between atoms: _499  and  _501
REMARK  203  A    between atoms: _501  and  _502
REMARK  204  A    between atoms: _501  and  _504
REMARK  205  A    between atoms: _504  and  _505
REMARK  206  A    between atoms: _510  and  _512
REMARK  207  A    between atoms: _512  and  _513
REMARK  208  A    between atoms: _512  and  _515
REMARK  209  A    between atoms: _515  and  _516
REMARK  210  A    between atoms: _519  and  _521
REMARK  211  A    between atoms: _521  and  _522
REMARK  212  A    between atoms: _521  and  _524
REMARK  213  A    between atoms: _524  and  _525
REMARK  214  A    between atoms: _528  and  _530
REMARK  215  A    between atoms: _530  and  _531
REMARK  216  A    between atoms: _530  and  _533
REMARK  217  A    between atoms: _533  and  _534
REMARK  218  A    between atoms: _540  and  _542
REMARK  219  A    between atoms: _542  and  _543
REMARK  220  A    between atoms: _542  and  _545
REMARK  221  A    between atoms: _545  and  _546
REMARK  222  A    between atoms: _546  and  _547
REMARK  223  A    between atoms: _547  and  _548
REMARK                            x       y       z     vdW  Elec       q    Type
REMARK                         _______ _______ _______ _____ _____    ______ ____
ROOT
ATOM      1  CG  LYS A   1      13.619  54.101   9.776  0.00  0.00    -0.000 C 
ENDROOT
BRANCH   1   2
ATOM      2  CB  LYS A   1      13.931  53.729  11.238  0.00  0.00    +0.025 C 
BRANCH   2   3
ATOM      3  CA  LYS A   1      15.041  54.572  11.878  0.00  0.00    +0.133 C 
BRANCH   3   4
ATOM      4  N   LYS A   1      16.193  54.720  10.978  0.00  0.00    -0.239 NA
ATOM      5  H   LYS A   1      16.936  53.993  10.966  0.00  0.00    +0.142 HD
ENDBRANCH   3   4
BRANCH   3   6
ATOM      6  C   LYS A   1      15.442  53.955  13.224  0.00  0.00    +0.224 C 
ATOM      7  O   LYS A   1      16.367  53.110  13.279  0.00  0.00    -0.287 OA
ENDBRANCH   3   6
ENDBRANCH   2   3
ENDBRANCH   1   2
BRANCH   1   8
ATOM      8  CD  LYS A   1      12.446  53.328   9.237  0.00  0.00    -0.024 C 
BRANCH   8   9
ATOM      9  CE  LYS A   1      12.227  53.698   7.771  0.00  0.00    -0.086 C 
BRANCH   9  10
ATOM     10  NZ  LYS A   1      12.943  52.799   6.858  0.00  0.00    +0.380 N 
ATOM     11  HZ1 LYS A   1      13.963  52.848   7.055  0.00  0.00    -0.089 HD
ATOM     12  HZ2 LYS A   1      12.608  51.825   6.999  0.00  0.00    -0.089 HD
ATOM     13  HZ3 LYS A   1      12.764  53.090   5.876  0.00  0.00    -0.089 HD
ENDBRANCH   9  10
ENDBRANCH   8   9
ENDBRANCH   1   8
TORSDOF 7
REMARK  Name = ../refined-set-2016/2wzm/2wzm_pocket.pdb
REMARK  223 active torsions:
REMARK  status: ('A' for Active; 'I' for Inactive)
REMARK    1  A    between atoms: _1  and  _3
REMARK    2  A    between atoms: _3  and  _4
REMARK    3  A    between atoms: _6  and  _8
REMARK    4  A    between atoms: _8  and  _9
REMARK    5  A    between atoms: _8  and  _11
REMARK    6  A    between atoms: _11  and  _12
REMARK    7  A    between atoms: _15  and  _17
REMARK    8  A    between atoms: _17  and  _18
REMARK    9  A    between atoms: _20  and  _22
REMARK   10  A    between atoms: _22  and  _23
REMARK   11  A    between atoms: _22  and  _25
REMARK   12  A    between atoms: _28  and  _30
REMARK   13  A    between atoms: _30  and  _31
REMARK   14  A    between atoms: _33  and  _35
REMARK   15  A    between atoms: _35  and  _36
REMARK   16  A    between atoms: _35  and  _38
REMARK   17  A    between atoms: _38  and  _39
REMARK   18  A    between atoms: _39  and  _40
REMARK   19  A    between atoms: _43  and  _45
REMARK   20  A    between atoms: _45  and  _46
REMARK   21  A    between atoms: _45  and  _48
REMARK   22  A    between atoms: _48  and  _49
REMARK   23  A    between atoms: _52  and  _54
REMARK   24  A    between atoms: _54  and  _55
REMARK   25  A    between atoms: _54  and  _57
REMARK   26  A    between atoms: _57  and  _58
REMARK   27  A    between atoms: _58  and  _59
REMARK   28  A    between atoms: _62  and  _64
REMARK   29  A    between atoms: _64  and  _65
REMARK   30  A    between atoms: _64  and  _67
REMARK   31  A    between atoms: _67  and  _68
REMARK   32  A    between atoms: _68  and  _69
REMARK   33  A    between atoms: _69  and  _70
REMARK   34  A    between atoms: _79  and  _81
REMARK   35  A    between atoms: _81  and  _82
REMARK   36  A    between atoms: _81  and  _84
REMARK   37  A    between atoms: _84  and  _85
REMARK   38  A    between atoms: _87  and  _89
REMARK   39  A    between atoms: _89  and  _90
REMARK   40  A    between atoms: _89  and  _92
REMARK   41  A    between atoms: _92  and  _93
REMARK   42  A    between atoms: _98  and  _99
REMARK   43  A    between atoms: _101  and  _103
REMARK   44  A    between atoms: _103  and  _104
REMARK   45  A    between atoms: _103  and  _106
REMARK   46  A    between atoms: _106  and  _107
REMARK   47  A    between atoms: _110  and  _112
REMARK   48  A    between atoms: _112  and  _113
REMARK   49  A    between atoms: _112  and  _115
REMARK   50  A    between atoms: _115  and  _116
REMARK   51  A    between atoms: _119  and  _121
REMARK   52  A    between atoms: _121  and  _122
REMARK   53  A    between atoms: _121  and  _124
REMARK   54  A    between atoms: _124  and  _125
REMARK   55  A    between atoms: _130  and  _131
REMARK   56  A    between atoms: _133  and  _135
REMARK   57  A    between atoms: _135  and  _136
REMARK   58  A    between atoms: _135  and  _138
REMARK   59  A    between atoms: _138  and  _139
REMARK   60  A    between atoms: _144  and  _146
REMARK   61  A    between atoms: _146  and  _147
REMARK   62  A    between atoms: _146  and  _149
REMARK   63  A    between atoms: _149  and  _150
REMARK   64  A    between atoms: _150  and  _151
REMARK   65  A    between atoms: _151  and  _152
REMARK   66  A    between atoms: _152  and  _153
REMARK   67  A    between atoms: _157  and  _159
REMARK   68  A    between atoms: _159  and  _160
REMARK   69  A    between atoms: _159  and  _162
REMARK   70  A    between atoms: _162  and  _163
REMARK   71  A    between atoms: _168  and  _170
REMARK   72  A    between atoms: _170  and  _171
REMARK   73  A    between atoms: _170  and  _173
REMARK   74  A    between atoms: _173  and  _174
REMARK   75  A    between atoms: _179  and  _181
REMARK   76  A    between atoms: _181  and  _182
REMARK   77  A    between atoms: _181  and  _184
REMARK   78  A    between atoms: _184  and  _185
REMARK   79  A    between atoms: _185  and  _186
REMARK   80  A    between atoms: _191  and  _193
REMARK   81  A    between atoms: _193  and  _194
REMARK   82  A    between atoms: _193  and  _196
REMARK   83  A    between atoms: _196  and  _197
REMARK   84  A    between atoms: _200  and  _202
REMARK   85  A    between atoms: _202  and  _203
REMARK   86  A    between atoms: _202  and  _205
REMARK   87  A    between atoms: _205  and  _206
REMARK   88  A    between atoms: _206  and  _207
REMARK   89  A    between atoms: _210  and  _212
REMARK   90  A    between atoms: _212  and  _213
REMARK   91  A    between atoms: _212  and  _215
REMARK   92  A    between atoms: _215  and  _216
REMARK   93  A    between atoms: _219  and  _221
REMARK   94  A    between atoms: _221  and  _222
REMARK   95  A    between atoms: _221  and  _224
REMARK   96  A    between atoms: _224  and  _225
REMARK   97  A    between atoms: _230  and  _232
REMARK   98  A    between atoms: _232  and  _233
REMARK   99  A    between atoms: _236  and  _238
REMARK  100  A    between atoms: _238  and  _239
REMARK  101  A    between atoms: _238  and  _241
REMARK  102  A    between atoms: _241  and  _242
REMARK  103  A    between atoms: _247  and  _248
REMARK  104  A    between atoms: _250  and  _252
REMARK  105  A    between atoms: _252  and  _253
REMARK  106  A    between atoms: _256  and  _257
REMARK  107  A    between atoms: _262  and  _264
REMARK  108  A    between atoms: _264  and  _265
REMARK  109  A    between atoms: _264  and  _267
REMARK  110  A    between atoms: _267  and  _268
REMARK  111  A    between atoms: _271  and  _273
REMARK  112  A    between atoms: _273  and  _274
REMARK  113  A    between atoms: _276  and  _278
REMARK  114  A    between atoms: _278  and  _279
REMARK  115  A    between atoms: _278  and  _281
REMARK  116  A    between atoms: _284  and  _286
REMARK  117  A    between atoms: _286  and  _287
REMARK  118  A    between atoms: _289  and  _291
REMARK  119  A    between atoms: _291  and  _292
REMARK  120  A    between atoms: _291  and  _294
REMARK  121  A    between atoms: _294  and  _295
REMARK  122  A    between atoms: _295  and  _296
REMARK  123  A    between atoms: _296  and  _297
REMARK  124  A    between atoms: _306  and  _308
REMARK  125  A    between atoms: _308  and  _309
REMARK  126  A    between atoms: _308  and  _311
REMARK  127  A    between atoms: _311  and  _312
REMARK  128  A    between atoms: _315  and  _317
REMARK  129  A    between atoms: _317  and  _318
REMARK  130  A    between atoms: _317  and  _320
REMARK  131  A    between atoms: _320  and  _321
REMARK  132  A    between atoms: _324  and  _326
REMARK  133  A    between atoms: _326  and  _327
REMARK  134  A    between atoms: _326  and  _329
REMARK  135  A    between atoms: _329  and  _330
REMARK  136  A    between atoms: _333  and  _335
REMARK  137  A    between atoms: _335  and  _336
REMARK  138  A    between atoms: _339  and  _341
REMARK  139  A    between atoms: _341  and  _342
REMARK  140  A    between atoms: _345  and  _347
REMARK  141  A    between atoms: _347  and  _348
REMARK  142  A    between atoms: _347  and  _350
REMARK  143  A    between atoms: _350  and  _351
REMARK  144  A    between atoms: _351  and  _352
REMARK  145  A    between atoms: _357  and  _359
REMARK  146  A    between atoms: _359  and  _360
REMARK  147  A    between atoms: _359  and  _362
REMARK  148  A    between atoms: _362  and  _363
REMARK  149  A    between atoms: _366  and  _368
REMARK  150  A    between atoms: _368  and  _369
REMARK  151  A    between atoms: _368  and  _371
REMARK  152  A    between atoms: _371  and  _372
REMARK  153  A    between atoms: _375  and  _377
REMARK  154  A    between atoms: _377  and  _378
REMARK  155  A    between atoms: _377  and  _380
REMARK  156  A    between atoms: _383  and  _385
REMARK  157  A    between atoms: _385  and  _386
REMARK  158  A    between atoms: _385  and  _388
REMARK  159  A    between atoms: _388  and  _389
REMARK  160  A    between atoms: _392  and  _394
REMARK  161  A    between atoms: _394  and  _395
REMARK  162  A    between atoms: _394  and  _397
REMARK  163  A    between atoms: _397  and  _398
REMARK  164  A    between atoms: _400  and  _402
REMARK  165  A    between atoms: _402  and  _403
REMARK  166  A    between atoms: _402  and  _405
REMARK  167  A    between atoms: _405  and  _406
REMARK  168  A    between atoms: _406  and  _407
REMARK  169  A    between atoms: _407  and  _408
REMARK  170  A    between atoms: _417  and  _419
REMARK  171  A    between atoms: _419  and  _420
REMARK  172  A    between atoms: _419  and  _422
REMARK  173  A    between atoms: _422  and  _423
REMARK  174  A    between atoms: _425  and  _427
REMARK  175  A    between atoms: _427  and  _428
REMARK  176  A    between atoms: _431  and  _433
REMARK  177  A    between atoms: _433  and  _434
REMARK  178  A    between atoms: _433  and  _436
REMARK  179  A    between atoms: _436  and  _437
REMARK  180  A    between atoms: _443  and  _444
REMARK  181  A    between atoms: _449  and  _451
REMARK  182  A    between atoms: _451  and  _452
REMARK  183  A    between atoms: _451  and  _454
REMARK  184  A    between atoms: _454  and  _455
REMARK  185  A    between atoms: _455  and  _456
REMARK  186  A    between atoms: _459  and  _461
REMARK  187  A    between atoms: _461  and  _462
REMARK  188  A    between atoms: _461  and  _464
REMARK  189  A    between atoms: _464  and  _465
REMARK  190  A    between atoms: _465  and  _466
REMARK  191  A    between atoms: _466  and  _467
REMARK  192  A    between atoms: _476  and  _478
REMARK  193  A    between atoms: _478  and  _479
REMARK  194  A    between atoms: _478  and  _481
REMARK  195  A    between atoms: _481  and  _482
REMARK  196  A    between atoms: _485  and  _487
REMARK  197  A    between atoms: _487  and  _488
REMARK  198  A    between atoms: _491  and  _493
REMARK  199  A    between atoms: _493  and  _494
REMARK  200  A    between atoms: _493  and  _496
REMARK  201  A    between atoms: _496  and  _497
REMARK  202  A    between atoms: _499  and  _501
REMARK  203  A    between atoms: _501  and  _502
REMARK  204  A    between atoms: _501  and  _504
REMARK  205  A    between atoms: _504  and  _505
REMARK  206  A    between atoms: _510  and  _512
REMARK  207  A    between atoms: _512  and  _513
REMARK  208  A    between atoms: _512  and  _515
REMARK  209  A    between atoms: _515  and  _516
REMARK  210  A    between atoms: _519  and  _521
REMARK  211  A    between atoms: _521  and  _522
REMARK  212  A    between atoms: _521  and  _524
REMARK  213  A    between atoms: _524  and  _525
REMARK  214  A    between atoms: _528  and  _530
REMARK  215  A    between atoms: _530  and  _531
REMARK  216  A    between atoms: _530  and  _533
REMARK  217  A    between atoms: _533  and  _534
REMARK  218  A    between atoms: _540  and  _542
REMARK  219  A    between atoms: _542  and  _543
REMARK  220  A    between atoms: _542  and  _545
REMARK  221  A    between atoms: _545  and  _546
REMARK  222  A    between atoms: _546  and  _547
REMARK  223  A    between atoms: _547  and  _548
REMARK                            x       y       z     vdW  Elec       q    Type
REMARK                         _______ _______ _______ _____ _____    ______ ____
ROOT
ATOM      1  CB  HIS A   1      11.078  51.738  13.313  0.00  0.00    +0.072 C 
ENDROOT
BRANCH   1   2
ATOM      2  CG  HIS A   1      11.231  50.907  12.080  0.00  0.00    +0.082 A 
ATOM      3  ND1 HIS A   1      12.371  50.167  11.831  0.00  0.00    -0.227 NA
ATOM      4  CE1 HIS A   1      12.227  49.523  10.685  0.00  0.00    +0.199 A 
ATOM      5  NE2 HIS A   1      11.053  49.846  10.166  0.00  0.00    -0.221 NA
ATOM      6  CD2 HIS A   1      10.404  50.696  11.030  0.00  0.00    +0.115 A 
ENDBRANCH   1   2
BRANCH   1   7
ATOM      7  CA  HIS A   1      10.087  52.910  13.174  0.00  0.00    +0.139 C 
BRANCH   7   8
ATOM      8  N   HIS A   1      10.461  53.966  14.130  0.00  0.00    -0.239 NA
ATOM      9  H   HIS A   1      11.161  53.758  14.870  0.00  0.00    +0.142 HD
ENDBRANCH   7   8
BRANCH   7  10
ATOM     10  C   HIS A   1       8.640  52.415  13.326  0.00  0.00    +0.224 C 
ATOM     11  O   HIS A   1       7.967  52.140  12.341  0.00  0.00    -0.287 OA
ENDBRANCH   7  10
ENDBRANCH   1   7
TORSDOF 4
REMARK  Name = ../refined-set-2016/2wzm/2wzm_pocket.pdb
REMARK  223 active torsions:
REMARK  status: ('A' for Active; 'I' for Inactive)
REMARK    1  A    between atoms: _1  and  _3
REMARK    2  A    between atoms: _3  and  _4
REMARK    3  A    between atoms: _6  and  _8
REMARK    4  A    between atoms: _8  and  _9
REMARK    5  A    between atoms: _8  and  _11
REMARK    6  A    between atoms: _11  and  _12
REMARK    7  A    between atoms: _15  and  _17
REMARK    8  A    between atoms: _17  and  _18
REMARK    9  A    between atoms: _20  and  _22
REMARK   10  A    between atoms: _22  and  _23
REMARK   11  A    between atoms: _22  and  _25
REMARK   12  A    between atoms: _28  and  _30
REMARK   13  A    between atoms: _30  and  _31
REMARK   14  A    between atoms: _33  and  _35
REMARK   15  A    between atoms: _35  and  _36
REMARK   16  A    between atoms: _35  and  _38
REMARK   17  A    between atoms: _38  and  _39
REMARK   18  A    between atoms: _39  and  _40
REMARK   19  A    between atoms: _43  and  _45
REMARK   20  A    between atoms: _45  and  _46
REMARK   21  A    between atoms: _45  and  _48
REMARK   22  A    between atoms: _48  and  _49
REMARK   23  A    between atoms: _52  and  _54
REMARK   24  A    between atoms: _54  and  _55
REMARK   25  A    between atoms: _54  and  _57
REMARK   26  A    between atoms: _57  and  _58
REMARK   27  A    between atoms: _58  and  _59
REMARK   28  A    between atoms: _62  and  _64
REMARK   29  A    between atoms: _64  and  _65
REMARK   30  A    between atoms: _64  and  _67
REMARK   31  A    between atoms: _67  and  _68
REMARK   32  A    between atoms: _68  and  _69
REMARK   33  A    between atoms: _69  and  _70
REMARK   34  A    between atoms: _79  and  _81
REMARK   35  A    between atoms: _81  and  _82
REMARK   36  A    between atoms: _81  and  _84
REMARK   37  A    between atoms: _84  and  _85
REMARK   38  A    between atoms: _87  and  _89
REMARK   39  A    between atoms: _89  and  _90
REMARK   40  A    between atoms: _89  and  _92
REMARK   41  A    between atoms: _92  and  _93
REMARK   42  A    between atoms: _98  and  _99
REMARK   43  A    between atoms: _101  and  _103
REMARK   44  A    between atoms: _103  and  _104
REMARK   45  A    between atoms: _103  and  _106
REMARK   46  A    between atoms: _106  and  _107
REMARK   47  A    between atoms: _110  and  _112
REMARK   48  A    between atoms: _112  and  _113
REMARK   49  A    between atoms: _112  and  _115
REMARK   50  A    between atoms: _115  and  _116
REMARK   51  A    between atoms: _119  and  _121
REMARK   52  A    between atoms: _121  and  _122
REMARK   53  A    between atoms: _121  and  _124
REMARK   54  A    between atoms: _124  and  _125
REMARK   55  A    between atoms: _130  and  _131
REMARK   56  A    between atoms: _133  and  _135
REMARK   57  A    between atoms: _135  and  _136
REMARK   58  A    between atoms: _135  and  _138
REMARK   59  A    between atoms: _138  and  _139
REMARK   60  A    between atoms: _144  and  _146
REMARK   61  A    between atoms: _146  and  _147
REMARK   62  A    between atoms: _146  and  _149
REMARK   63  A    between atoms: _149  and  _150
REMARK   64  A    between atoms: _150  and  _151
REMARK   65  A    between atoms: _151  and  _152
REMARK   66  A    between atoms: _152  and  _153
REMARK   67  A    between atoms: _157  and  _159
REMARK   68  A    between atoms: _159  and  _160
REMARK   69  A    between atoms: _159  and  _162
REMARK   70  A    between atoms: _162  and  _163
REMARK   71  A    between atoms: _168  and  _170
REMARK   72  A    between atoms: _170  and  _171
REMARK   73  A    between atoms: _170  and  _173
REMARK   74  A    between atoms: _173  and  _174
REMARK   75  A    between atoms: _179  and  _181
REMARK   76  A    between atoms: _181  and  _182
REMARK   77  A    between atoms: _181  and  _184
REMARK   78  A    between atoms: _184  and  _185
REMARK   79  A    between atoms: _185  and  _186
REMARK   80  A    between atoms: _191  and  _193
REMARK   81  A    between atoms: _193  and  _194
REMARK   82  A    between atoms: _193  and  _196
REMARK   83  A    between atoms: _196  and  _197
REMARK   84  A    between atoms: _200  and  _202
REMARK   85  A    between atoms: _202  and  _203
REMARK   86  A    between atoms: _202  and  _205
REMARK   87  A    between atoms: _205  and  _206
REMARK   88  A    between atoms: _206  and  _207
REMARK   89  A    between atoms: _210  and  _212
REMARK   90  A    between atoms: _212  and  _213
REMARK   91  A    between atoms: _212  and  _215
REMARK   92  A    between atoms: _215  and  _216
REMARK   93  A    between atoms: _219  and  _221
REMARK   94  A    between atoms: _221  and  _222
REMARK   95  A    between atoms: _221  and  _224
REMARK   96  A    between atoms: _224  and  _225
REMARK   97  A    between atoms: _230  and  _232
REMARK   98  A    between atoms: _232  and  _233
REMARK   99  A    between atoms: _236  and  _238
REMARK  100  A    between atoms: _238  and  _239
REMARK  101  A    between atoms: _238  and  _241
REMARK  102  A    between atoms: _241  and  _242
REMARK  103  A    between atoms: _247  and  _248
REMARK  104  A    between atoms: _250  and  _252
REMARK  105  A    between atoms: _252  and  _253
REMARK  106  A    between atoms: _256  and  _257
REMARK  107  A    between atoms: _262  and  _264
REMARK  108  A    between atoms: _264  and  _265
REMARK  109  A    between atoms: _264  and  _267
REMARK  110  A    between atoms: _267  and  _268
REMARK  111  A    between atoms: _271  and  _273
REMARK  112  A    between atoms: _273  and  _274
REMARK  113  A    between atoms: _276  and  _278
REMARK  114  A    between atoms: _278  and  _279
REMARK  115  A    between atoms: _278  and  _281
REMARK  116  A    between atoms: _284  and  _286
REMARK  117  A    between atoms: _286  and  _287
REMARK  118  A    between atoms: _289  and  _291
REMARK  119  A    between atoms: _291  and  _292
REMARK  120  A    between atoms: _291  and  _294
REMARK  121  A    between atoms: _294  and  _295
REMARK  122  A    between atoms: _295  and  _296
REMARK  123  A    between atoms: _296  and  _297
REMARK  124  A    between atoms: _306  and  _308
REMARK  125  A    between atoms: _308  and  _309
REMARK  126  A    between atoms: _308  and  _311
REMARK  127  A    between atoms: _311  and  _312
REMARK  128  A    between atoms: _315  and  _317
REMARK  129  A    between atoms: _317  and  _318
REMARK  130  A    between atoms: _317  and  _320
REMARK  131  A    between atoms: _320  and  _321
REMARK  132  A    between atoms: _324  and  _326
REMARK  133  A    between atoms: _326  and  _327
REMARK  134  A    between atoms: _326  and  _329
REMARK  135  A    between atoms: _329  and  _330
REMARK  136  A    between atoms: _333  and  _335
REMARK  137  A    between atoms: _335  and  _336
REMARK  138  A    between atoms: _339  and  _341
REMARK  139  A    between atoms: _341  and  _342
REMARK  140  A    between atoms: _345  and  _347
REMARK  141  A    between atoms: _347  and  _348
REMARK  142  A    between atoms: _347  and  _350
REMARK  143  A    between atoms: _350  and  _351
REMARK  144  A    between atoms: _351  and  _352
REMARK  145  A    between atoms: _357  and  _359
REMARK  146  A    between atoms: _359  and  _360
REMARK  147  A    between atoms: _359  and  _362
REMARK  148  A    between atoms: _362  and  _363
REMARK  149  A    between atoms: _366  and  _368
REMARK  150  A    between atoms: _368  and  _369
REMARK  151  A    between atoms: _368  and  _371
REMARK  152  A    between atoms: _371  and  _372
REMARK  153  A    between atoms: _375  and  _377
REMARK  154  A    between atoms: _377  and  _378
REMARK  155  A    between atoms: _377  and  _380
REMARK  156  A    between atoms: _383  and  _385
REMARK  157  A    between atoms: _385  and  _386
REMARK  158  A    between atoms: _385  and  _388
REMARK  159  A    between atoms: _388  and  _389
REMARK  160  A    between atoms: _392  and  _394
REMARK  161  A    between atoms: _394  and  _395
REMARK  162  A    between atoms: _394  and  _397
REMARK  163  A    between atoms: _397  and  _398
REMARK  164  A    between atoms: _400  and  _402
REMARK  165  A    between atoms: _402  and  _403
REMARK  166  A    between atoms: _402  and  _405
REMARK  167  A    between atoms: _405  and  _406
REMARK  168  A    between atoms: _406  and  _407
REMARK  169  A    between atoms: _407  and  _408
REMARK  170  A    between atoms: _417  and  _419
REMARK  171  A    between atoms: _419  and  _420
REMARK  172  A    between atoms: _419  and  _422
REMARK  173  A    between atoms: _422  and  _423
REMARK  174  A    between atoms: _425  and  _427
REMARK  175  A    between atoms: _427  and  _428
REMARK  176  A    between atoms: _431  and  _433
REMARK  177  A    between atoms: _433  and  _434
REMARK  178  A    between atoms: _433  and  _436
REMARK  179  A    between atoms: _436  and  _437
REMARK  180  A    between atoms: _443  and  _444
REMARK  181  A    between atoms: _449  and  _451
REMARK  182  A    between atoms: _451  and  _452
REMARK  183  A    between atoms: _451  and  _454
REMARK  184  A    between atoms: _454  and  _455
REMARK  185  A    between atoms: _455  and  _456
REMARK  186  A    between atoms: _459  and  _461
REMARK  187  A    between atoms: _461  and  _462
REMARK  188  A    between atoms: _461  and  _464
REMARK  189  A    between atoms: _464  and  _465
REMARK  190  A    between atoms: _465  and  _466
REMARK  191  A    between atoms: _466  and  _467
REMARK  192  A    between atoms: _476  and  _478
REMARK  193  A    between atoms: _478  and  _479
REMARK  194  A    between atoms: _478  and  _481
REMARK  195  A    between atoms: _481  and  _482
REMARK  196  A    between atoms: _485  and  _487
REMARK  197  A    between atoms: _487  and  _488
REMARK  198  A    between atoms: _491  and  _493
REMARK  199  A    between atoms: _493  and  _494
REMARK  200  A    between atoms: _493  and  _496
REMARK  201  A    between atoms: _496  and  _497
REMARK  202  A    between atoms: _499  and  _501
REMARK  203  A    between atoms: _501  and  _502
REMARK  204  A    between atoms: _501  and  _504
REMARK  205  A    between atoms: _504  and  _505
REMARK  206  A    between atoms: _510  and  _512
REMARK  207  A    between atoms: _512  and  _513
REMARK  208  A    between atoms: _512  and  _515
REMARK  209  A    between atoms: _515  and  _516
REMARK  210  A    between atoms: _519  and  _521
REMARK  211  A    between atoms: _521  and  _522
REMARK  212  A    between atoms: _521  and  _524
REMARK  213  A    between atoms: _524  and  _525
REMARK  214  A    between atoms: _528  and  _530
REMARK  215  A    between atoms: _530  and  _531
REMARK  216  A    between atoms: _530  and  _533
REMARK  217  A    between atoms: _533  and  _534
REMARK  218  A    between atoms: _540  and  _542
REMARK  219  A    between atoms: _542  and  _543
REMARK  220  A    between atoms: _542  and  _545
REMARK  221  A    between atoms: _545  and  _546
REMARK  222  A    between atoms: _546  and  _547
REMARK  223  A    between atoms: _547  and  _548
REMARK                            x       y       z     vdW  Elec       q    Type
REMARK                         _______ _______ _______ _____ _____    ______ ____
ROOT
ATOM      1  CB  ASN A   1       3.871  52.233  11.052  0.00  0.00    +0.110 C 
ENDROOT
BRANCH   1   2
ATOM      2  CG  ASN A   1       4.751  51.652   9.945  0.00  0.00    +0.221 C 
ATOM      3  ND2 ASN A   1       6.017  51.414  10.252  0.00  0.00    -0.329 N 
ATOM      4 HD21 ASN A   1       6.381  51.668  11.193  0.00  0.00    +0.145 HD
ATOM      5 HD22 ASN A   1       6.648  50.973   9.552  0.00  0.00    +0.145 HD
ATOM      6  OD1 ASN A   1       4.272  51.375   8.858  0.00  0.00    -0.275 OA
ENDBRANCH   1   2
BRANCH   1   7
ATOM      7  CA  ASN A   1       3.337  53.647  10.732  0.00  0.00    +0.142 C 
BRANCH   7   8
ATOM      8  N   ASN A   1       4.438  54.537  10.384  0.00  0.00    -0.239 NA
ATOM      9  H   ASN A   1       4.434  54.983   9.445  0.00  0.00    +0.142 HD
ENDBRANCH   7   8
BRANCH   7  10
ATOM     10  C   ASN A   1       2.546  54.209  11.923  0.00  0.00    +0.225 C 
ATOM     11  O   ASN A   1       1.982  53.445  12.729  0.00  0.00    -0.287 OA
ENDBRANCH   7  10
ENDBRANCH   1   7
TORSDOF 4
REMARK  Name = ../refined-set-2016/2wzm/2wzm_pocket.pdb
REMARK  223 active torsions:
REMARK  status: ('A' for Active; 'I' for Inactive)
REMARK    1  A    between atoms: _1  and  _3
REMARK    2  A    between atoms: _3  and  _4
REMARK    3  A    between atoms: _6  and  _8
REMARK    4  A    between atoms: _8  and  _9
REMARK    5  A    between atoms: _8  and  _11
REMARK    6  A    between atoms: _11  and  _12
REMARK    7  A    between atoms: _15  and  _17
REMARK    8  A    between atoms: _17  and  _18
REMARK    9  A    between atoms: _20  and  _22
REMARK   10  A    between atoms: _22  and  _23
REMARK   11  A    between atoms: _22  and  _25
REMARK   12  A    between atoms: _28  and  _30
REMARK   13  A    between atoms: _30  and  _31
REMARK   14  A    between atoms: _33  and  _35
REMARK   15  A    between atoms: _35  and  _36
REMARK   16  A    between atoms: _35  and  _38
REMARK   17  A    between atoms: _38  and  _39
REMARK   18  A    between atoms: _39  and  _40
REMARK   19  A    between atoms: _43  and  _45
REMARK   20  A    between atoms: _45  and  _46
REMARK   21  A    between atoms: _45  and  _48
REMARK   22  A    between atoms: _48  and  _49
REMARK   23  A    between atoms: _52  and  _54
REMARK   24  A    between atoms: _54  and  _55
REMARK   25  A    between atoms: _54  and  _57
REMARK   26  A    between atoms: _57  and  _58
REMARK   27  A    between atoms: _58  and  _59
REMARK   28  A    between atoms: _62  and  _64
REMARK   29  A    between atoms: _64  and  _65
REMARK   30  A    between atoms: _64  and  _67
REMARK   31  A    between atoms: _67  and  _68
REMARK   32  A    between atoms: _68  and  _69
REMARK   33  A    between atoms: _69  and  _70
REMARK   34  A    between atoms: _79  and  _81
REMARK   35  A    between atoms: _81  and  _82
REMARK   36  A    between atoms: _81  and  _84
REMARK   37  A    between atoms: _84  and  _85
REMARK   38  A    between atoms: _87  and  _89
REMARK   39  A    between atoms: _89  and  _90
REMARK   40  A    between atoms: _89  and  _92
REMARK   41  A    between atoms: _92  and  _93
REMARK   42  A    between atoms: _98  and  _99
REMARK   43  A    between atoms: _101  and  _103
REMARK   44  A    between atoms: _103  and  _104
REMARK   45  A    between atoms: _103  and  _106
REMARK   46  A    between atoms: _106  and  _107
REMARK   47  A    between atoms: _110  and  _112
REMARK   48  A    between atoms: _112  and  _113
REMARK   49  A    between atoms: _112  and  _115
REMARK   50  A    between atoms: _115  and  _116
REMARK   51  A    between atoms: _119  and  _121
REMARK   52  A    between atoms: _121  and  _122
REMARK   53  A    between atoms: _121  and  _124
REMARK   54  A    between atoms: _124  and  _125
REMARK   55  A    between atoms: _130  and  _131
REMARK   56  A    between atoms: _133  and  _135
REMARK   57  A    between atoms: _135  and  _136
REMARK   58  A    between atoms: _135  and  _138
REMARK   59  A    between atoms: _138  and  _139
REMARK   60  A    between atoms: _144  and  _146
REMARK   61  A    between atoms: _146  and  _147
REMARK   62  A    between atoms: _146  and  _149
REMARK   63  A    between atoms: _149  and  _150
REMARK   64  A    between atoms: _150  and  _151
REMARK   65  A    between atoms: _151  and  _152
REMARK   66  A    between atoms: _152  and  _153
REMARK   67  A    between atoms: _157  and  _159
REMARK   68  A    between atoms: _159  and  _160
REMARK   69  A    between atoms: _159  and  _162
REMARK   70  A    between atoms: _162  and  _163
REMARK   71  A    between atoms: _168  and  _170
REMARK   72  A    between atoms: _170  and  _171
REMARK   73  A    between atoms: _170  and  _173
REMARK   74  A    between atoms: _173  and  _174
REMARK   75  A    between atoms: _179  and  _181
REMARK   76  A    between atoms: _181  and  _182
REMARK   77  A    between atoms: _181  and  _184
REMARK   78  A    between atoms: _184  and  _185
REMARK   79  A    between atoms: _185  and  _186
REMARK   80  A    between atoms: _191  and  _193
REMARK   81  A    between atoms: _193  and  _194
REMARK   82  A    between atoms: _193  and  _196
REMARK   83  A    between atoms: _196  and  _197
REMARK   84  A    between atoms: _200  and  _202
REMARK   85  A    between atoms: _202  and  _203
REMARK   86  A    between atoms: _202  and  _205
REMARK   87  A    between atoms: _205  and  _206
REMARK   88  A    between atoms: _206  and  _207
REMARK   89  A    between atoms: _210  and  _212
REMARK   90  A    between atoms: _212  and  _213
REMARK   91  A    between atoms: _212  and  _215
REMARK   92  A    between atoms: _215  and  _216
REMARK   93  A    between atoms: _219  and  _221
REMARK   94  A    between atoms: _221  and  _222
REMARK   95  A    between atoms: _221  and  _224
REMARK   96  A    between atoms: _224  and  _225
REMARK   97  A    between atoms: _230  and  _232
REMARK   98  A    between atoms: _232  and  _233
REMARK   99  A    between atoms: _236  and  _238
REMARK  100  A    between atoms: _238  and  _239
REMARK  101  A    between atoms: _238  and  _241
REMARK  102  A    between atoms: _241  and  _242
REMARK  103  A    between atoms: _247  and  _248
REMARK  104  A    between atoms: _250  and  _252
REMARK  105  A    between atoms: _252  and  _253
REMARK  106  A    between atoms: _256  and  _257
REMARK  107  A    between atoms: _262  and  _264
REMARK  108  A    between atoms: _264  and  _265
REMARK  109  A    between atoms: _264  and  _267
REMARK  110  A    between atoms: _267  and  _268
REMARK  111  A    between atoms: _271  and  _273
REMARK  112  A    between atoms: _273  and  _274
REMARK  113  A    between atoms: _276  and  _278
REMARK  114  A    between atoms: _278  and  _279
REMARK  115  A    between atoms: _278  and  _281
REMARK  116  A    between atoms: _284  and  _286
REMARK  117  A    between atoms: _286  and  _287
REMARK  118  A    between atoms: _289  and  _291
REMARK  119  A    between atoms: _291  and  _292
REMARK  120  A    between atoms: _291  and  _294
REMARK  121  A    between atoms: _294  and  _295
REMARK  122  A    between atoms: _295  and  _296
REMARK  123  A    between atoms: _296  and  _297
REMARK  124  A    between atoms: _306  and  _308
REMARK  125  A    between atoms: _308  and  _309
REMARK  126  A    between atoms: _308  and  _311
REMARK  127  A    between atoms: _311  and  _312
REMARK  128  A    between atoms: _315  and  _317
REMARK  129  A    between atoms: _317  and  _318
REMARK  130  A    between atoms: _317  and  _320
REMARK  131  A    between atoms: _320  and  _321
REMARK  132  A    between atoms: _324  and  _326
REMARK  133  A    between atoms: _326  and  _327
REMARK  134  A    between atoms: _326  and  _329
REMARK  135  A    between atoms: _329  and  _330
REMARK  136  A    between atoms: _333  and  _335
REMARK  137  A    between atoms: _335  and  _336
REMARK  138  A    between atoms: _339  and  _341
REMARK  139  A    between atoms: _341  and  _342
REMARK  140  A    between atoms: _345  and  _347
REMARK  141  A    between atoms: _347  and  _348
REMARK  142  A    between atoms: _347  and  _350
REMARK  143  A    between atoms: _350  and  _351
REMARK  144  A    between atoms: _351  and  _352
REMARK  145  A    between atoms: _357  and  _359
REMARK  146  A    between atoms: _359  and  _360
REMARK  147  A    between atoms: _359  and  _362
REMARK  148  A    between atoms: _362  and  _363
REMARK  149  A    between atoms: _366  and  _368
REMARK  150  A    between atoms: _368  and  _369
REMARK  151  A    between atoms: _368  and  _371
REMARK  152  A    between atoms: _371  and  _372
REMARK  153  A    between atoms: _375  and  _377
REMARK  154  A    between atoms: _377  and  _378
REMARK  155  A    between atoms: _377  and  _380
REMARK  156  A    between atoms: _383  and  _385
REMARK  157  A    between atoms: _385  and  _386
REMARK  158  A    between atoms: _385  and  _388
REMARK  159  A    between atoms: _388  and  _389
REMARK  160  A    between atoms: _392  and  _394
REMARK  161  A    between atoms: _394  and  _395
REMARK  162  A    between atoms: _394  and  _397
REMARK  163  A    between atoms: _397  and  _398
REMARK  164  A    between atoms: _400  and  _402
REMARK  165  A    between atoms: _402  and  _403
REMARK  166  A    between atoms: _402  and  _405
REMARK  167  A    between atoms: _405  and  _406
REMARK  168  A    between atoms: _406  and  _407
REMARK  169  A    between atoms: _407  and  _408
REMARK  170  A    between atoms: _417  and  _419
REMARK  171  A    between atoms: _419  and  _420
REMARK  172  A    between atoms: _419  and  _422
REMARK  173  A    between atoms: _422  and  _423
REMARK  174  A    between atoms: _425  and  _427
REMARK  175  A    between atoms: _427  and  _428
REMARK  176  A    between atoms: _431  and  _433
REMARK  177  A    between atoms: _433  and  _434
REMARK  178  A    between atoms: _433  and  _436
REMARK  179  A    between atoms: _436  and  _437
REMARK  180  A    between atoms: _443  and  _444
REMARK  181  A    between atoms: _449  and  _451
REMARK  182  A    between atoms: _451  and  _452
REMARK  183  A    between atoms: _451  and  _454
REMARK  184  A    between atoms: _454  and  _455
REMARK  185  A    between atoms: _455  and  _456
REMARK  186  A    between atoms: _459  and  _461
REMARK  187  A    between atoms: _461  and  _462
REMARK  188  A    between atoms: _461  and  _464
REMARK  189  A    between atoms: _464  and  _465
REMARK  190  A    between atoms: _465  and  _466
REMARK  191  A    between atoms: _466  and  _467
REMARK  192  A    between atoms: _476  and  _478
REMARK  193  A    between atoms: _478  and  _479
REMARK  194  A    between atoms: _478  and  _481
REMARK  195  A    between atoms: _481  and  _482
REMARK  196  A    between atoms: _485  and  _487
REMARK  197  A    between atoms: _487  and  _488
REMARK  198  A    between atoms: _491  and  _493
REMARK  199  A    between atoms: _493  and  _494
REMARK  200  A    between atoms: _493  and  _496
REMARK  201  A    between atoms: _496  and  _497
REMARK  202  A    between atoms: _499  and  _501
REMARK  203  A    between atoms: _501  and  _502
REMARK  204  A    between atoms: _501  and  _504
REMARK  205  A    between atoms: _504  and  _505
REMARK  206  A    between atoms: _510  and  _512
REMARK  207  A    between atoms: _512  and  _513
REMARK  208  A    between atoms: _512  and  _515
REMARK  209  A    between atoms: _515  and  _516
REMARK  210  A    between atoms: _519  and  _521
REMARK  211  A    between atoms: _521  and  _522
REMARK  212  A    between atoms: _521  and  _524
REMARK  213  A    between atoms: _524  and  _525
REMARK  214  A    between atoms: _528  and  _530
REMARK  215  A    between atoms: _530  and  _531
REMARK  216  A    between atoms: _530  and  _533
REMARK  217  A    between atoms: _533  and  _534
REMARK  218  A    between atoms: _540  and  _542
REMARK  219  A    between atoms: _542  and  _543
REMARK  220  A    between atoms: _542  and  _545
REMARK  221  A    between atoms: _545  and  _546
REMARK  222  A    between atoms: _546  and  _547
REMARK  223  A    between atoms: _547  and  _548
REMARK                            x       y       z     vdW  Elec       q    Type
REMARK                         _______ _______ _______ _____ _____    ______ ____
ROOT
ATOM      1  CA  GLU A   3       2.451  51.451   3.776  0.00  0.00    +0.149 C 
ENDROOT
BRANCH   1   2
ATOM      2  C   GLU A   3       1.330  52.054   2.934  0.00  0.00    +0.241 C 
ATOM      3  O   GLU A   3       0.300  52.482   3.471  0.00  0.00    -0.273 OA
ATOM      4  N   LEU A   4       1.524  52.126   1.617  0.00  0.00    -0.297 N 
ATOM      5  H   LEU A   4       2.377  51.711   1.190  0.00  0.00    +0.150 HD
BRANCH   4   6
ATOM      6  CA  LEU A   4       0.536  52.788   0.783  0.00  0.00    +0.149 C 
BRANCH   6   7
ATOM      7  C   LEU A   4       0.653  52.284  -0.660  0.00  0.00    +0.241 C 
ATOM      8  N   HIS A   5      -0.480  51.849  -1.191  0.00  0.00    -0.298 N 
ATOM      9  H   HIS A   5      -1.336  51.892  -0.601  0.00  0.00    +0.150 HD
ATOM     10  O   LEU A   4       1.739  52.269  -1.243  0.00  0.00    -0.273 OA
BRANCH   8  11
ATOM     11  CA  HIS A   5      -0.618  51.310  -2.550  0.00  0.00    +0.143 C 
BRANCH  11  12
ATOM     12  C   HIS A   5      -2.132  51.220  -2.865  0.00  0.00    +0.227 C 
ATOM     13  O   HIS A   5      -2.939  51.518  -1.985  0.00  0.00    -0.286 OA
ENDBRANCH  11  12
BRANCH  11  14
ATOM     14  CB  HIS A   5       0.093  49.952  -2.669  0.00  0.00    +0.075 C 
BRANCH  14  15
ATOM     15  CG  HIS A   5      -0.288  49.000  -1.586  0.00  0.00    +0.082 A 
ATOM     16  CD2 HIS A   5       0.369  48.620  -0.465  0.00  0.00    +0.115 A 
ATOM     17  NE2 HIS A   5      -0.456  47.754   0.210  0.00  0.00    -0.221 NA
ATOM     18  CE1 HIS A   5      -1.591  47.625  -0.460  0.00  0.00    +0.199 A 
ATOM     19  ND1 HIS A   5      -1.529  48.385  -1.544  0.00  0.00    -0.227 NA
ENDBRANCH  14  15
ENDBRANCH  11  14
ENDBRANCH   8  11
ENDBRANCH   6   7
BRANCH   6  20
ATOM     20  CB  LEU A   4       0.684  54.313   0.871  0.00  0.00    +0.029 C 
BRANCH  20  21
ATOM     21  CG  LEU A   4      -0.474  55.240   0.487  0.00  0.00    +0.002 C 
ATOM     22  CD2 LEU A   4      -0.257  56.610   1.059  0.00  0.00    +0.000 C 
ATOM     23  CD1 LEU A   4      -0.686  55.306  -1.024  0.00  0.00    +0.000 C 
ENDBRANCH  20  21
ENDBRANCH   6  20
ENDBRANCH   4   6
ENDBRANCH   1   2
BRANCH   1  25
ATOM     24  C   ILE A   2       3.144  53.579   4.718  0.00  0.00    +0.241 C 
ATOM     25  N   GLU A   3       2.754  52.322   4.921  0.00  0.00    -0.297 N 
ATOM     26  H   GLU A   3       2.664  51.956   5.890  0.00  0.00    +0.150 HD
ATOM     27  O   ILE A   2       3.405  54.008   3.585  0.00  0.00    -0.273 OA
BRANCH  24  28
ATOM     28  CA  ILE A   2       3.260  54.489   5.948  0.00  0.00    +0.148 C 
BRANCH  28  31
ATOM     29  C   GLN A   1       5.210  55.747   6.761  0.00  0.00    +0.238 C 
ATOM     30  O   GLN A   1       5.299  55.080   7.801  0.00  0.00    -0.274 OA
ATOM     31  N   ILE A   2       4.335  55.478   5.786  0.00  0.00    -0.297 N 
ATOM     32  H   ILE A   2       4.418  55.986   4.882  0.00  0.00    +0.150 HD
BRANCH  29  33
ATOM     33  CA  GLN A   1       6.112  56.965   6.538  0.00  0.00    +0.145 C 
BRANCH  33  34
ATOM     34  N   GLN A   1       5.809  57.980   7.574  0.00  0.00    -0.238 NA
ATOM     35  H   GLN A   1       6.318  57.933   8.480  0.00  0.00    +0.142 HD
ENDBRANCH  33  34
BRANCH  33  36
ATOM     36  CB  GLN A   1       7.601  56.571   6.550  0.00  0.00    +0.036 C 
BRANCH  36  37
ATOM     37  CG  GLN A   1       7.933  55.482   5.507  0.00  0.00    +0.087 C 
BRANCH  37  38
ATOM     38  CD  GLN A   1       9.399  55.061   5.509  0.00  0.00    +0.219 C 
ATOM     39  NE2 GLN A   1       9.616  53.758   5.578  0.00  0.00    -0.329 N 
ATOM     40 HE21 GLN A   1       8.813  53.100   5.646  0.00  0.00    +0.145 HD
ATOM     41 HE22 GLN A   1      10.589  53.391   5.565  0.00  0.00    +0.145 HD
ATOM     42  OE1 GLN A   1      10.324  55.888   5.427  0.00  0.00    -0.275 OA
ENDBRANCH  37  38
ENDBRANCH  36  37
ENDBRANCH  33  36
ENDBRANCH  29  33
ENDBRANCH  28  31
BRANCH  28  43
ATOM     43  CB  ILE A   2       1.873  55.169   6.259  0.00  0.00    +0.027 C 
ATOM     44  CG2 ILE A   2       1.918  55.891   7.608  0.00  0.00    +0.002 C 
BRANCH  43  45
ATOM     45  CG1 ILE A   2       1.458  56.157   5.143  0.00  0.00    +0.002 C 
ATOM     46  CD1 ILE A   2       0.091  56.854   5.352  0.00  0.00    +0.000 C 
ENDBRANCH  43  45
ENDBRANCH  28  43
ENDBRANCH  24  28
ENDBRANCH   1  25
BRANCH   1  47
ATOM     47  CB  GLU A   3       2.041  50.031   4.223  0.00  0.00    +0.041 C 
BRANCH  47  48
ATOM     48  CG  GLU A   3       1.869  49.082   3.032  0.00  0.00    +0.116 C 
BRANCH  48  49
ATOM     49  CD  GLU A   3       1.490  47.639   3.404  0.00  0.00    +0.365 C 
ATOM     50  OE2 GLU A   3       1.492  47.288   4.610  0.00  0.00    -0.246 OA
ATOM     51  OE1 GLU A   3       1.204  46.864   2.465  0.00  0.00    -0.246 OA
ENDBRANCH  48  49
ENDBRANCH  47  48
ENDBRANCH   1  47
TORSDOF 22
REMARK  Name = ../refined-set-2016/2wzm/2wzm_pocket.pdb
REMARK  223 active torsions:
REMARK  status: ('A' for Active; 'I' for Inactive)
REMARK    1  A    between atoms: _1  and  _3
REMARK    2  A    between atoms: _3  and  _4
REMARK    3  A    between atoms: _6  and  _8
REMARK    4  A    between atoms: _8  and  _9
REMARK    5  A    between atoms: _8  and  _11
REMARK    6  A    between atoms: _11  and  _12
REMARK    7  A    between atoms: _15  and  _17
REMARK    8  A    between atoms: _17  and  _18
REMARK    9  A    between atoms: _20  and  _22
REMARK   10  A    between atoms: _22  and  _23
REMARK   11  A    between atoms: _22  and  _25
REMARK   12  A    between atoms: _28  and  _30
REMARK   13  A    between atoms: _30  and  _31
REMARK   14  A    between atoms: _33  and  _35
REMARK   15  A    between atoms: _35  and  _36
REMARK   16  A    between atoms: _35  and  _38
REMARK   17  A    between atoms: _38  and  _39
REMARK   18  A    between atoms: _39  and  _40
REMARK   19  A    between atoms: _43  and  _45
REMARK   20  A    between atoms: _45  and  _46
REMARK   21  A    between atoms: _45  and  _48
REMARK   22  A    between atoms: _48  and  _49
REMARK   23  A    between atoms: _52  and  _54
REMARK   24  A    between atoms: _54  and  _55
REMARK   25  A    between atoms: _54  and  _57
REMARK   26  A    between atoms: _57  and  _58
REMARK   27  A    between atoms: _58  and  _59
REMARK   28  A    between atoms: _62  and  _64
REMARK   29  A    between atoms: _64  and  _65
REMARK   30  A    between atoms: _64  and  _67
REMARK   31  A    between atoms: _67  and  _68
REMARK   32  A    between atoms: _68  and  _69
REMARK   33  A    between atoms: _69  and  _70
REMARK   34  A    between atoms: _79  and  _81
REMARK   35  A    between atoms: _81  and  _82
REMARK   36  A    between atoms: _81  and  _84
REMARK   37  A    between atoms: _84  and  _85
REMARK   38  A    between atoms: _87  and  _89
REMARK   39  A    between atoms: _89  and  _90
REMARK   40  A    between atoms: _89  and  _92
REMARK   41  A    between atoms: _92  and  _93
REMARK   42  A    between atoms: _98  and  _99
REMARK   43  A    between atoms: _101  and  _103
REMARK   44  A    between atoms: _103  and  _104
REMARK   45  A    between atoms: _103  and  _106
REMARK   46  A    between atoms: _106  and  _107
REMARK   47  A    between atoms: _110  and  _112
REMARK   48  A    between atoms: _112  and  _113
REMARK   49  A    between atoms: _112  and  _115
REMARK   50  A    between atoms: _115  and  _116
REMARK   51  A    between atoms: _119  and  _121
REMARK   52  A    between atoms: _121  and  _122
REMARK   53  A    between atoms: _121  and  _124
REMARK   54  A    between atoms: _124  and  _125
REMARK   55  A    between atoms: _130  and  _131
REMARK   56  A    between atoms: _133  and  _135
REMARK   57  A    between atoms: _135  and  _136
REMARK   58  A    between atoms: _135  and  _138
REMARK   59  A    between atoms: _138  and  _139
REMARK   60  A    between atoms: _144  and  _146
REMARK   61  A    between atoms: _146  and  _147
REMARK   62  A    between atoms: _146  and  _149
REMARK   63  A    between atoms: _149  and  _150
REMARK   64  A    between atoms: _150  and  _151
REMARK   65  A    between atoms: _151  and  _152
REMARK   66  A    between atoms: _152  and  _153
REMARK   67  A    between atoms: _157  and  _159
REMARK   68  A    between atoms: _159  and  _160
REMARK   69  A    between atoms: _159  and  _162
REMARK   70  A    between atoms: _162  and  _163
REMARK   71  A    between atoms: _168  and  _170
REMARK   72  A    between atoms: _170  and  _171
REMARK   73  A    between atoms: _170  and  _173
REMARK   74  A    between atoms: _173  and  _174
REMARK   75  A    between atoms: _179  and  _181
REMARK   76  A    between atoms: _181  and  _182
REMARK   77  A    between atoms: _181  and  _184
REMARK   78  A    between atoms: _184  and  _185
REMARK   79  A    between atoms: _185  and  _186
REMARK   80  A    between atoms: _191  and  _193
REMARK   81  A    between atoms: _193  and  _194
REMARK   82  A    between atoms: _193  and  _196
REMARK   83  A    between atoms: _196  and  _197
REMARK   84  A    between atoms: _200  and  _202
REMARK   85  A    between atoms: _202  and  _203
REMARK   86  A    between atoms: _202  and  _205
REMARK   87  A    between atoms: _205  and  _206
REMARK   88  A    between atoms: _206  and  _207
REMARK   89  A    between atoms: _210  and  _212
REMARK   90  A    between atoms: _212  and  _213
REMARK   91  A    between atoms: _212  and  _215
REMARK   92  A    between atoms: _215  and  _216
REMARK   93  A    between atoms: _219  and  _221
REMARK   94  A    between atoms: _221  and  _222
REMARK   95  A    between atoms: _221  and  _224
REMARK   96  A    between atoms: _224  and  _225
REMARK   97  A    between atoms: _230  and  _232
REMARK   98  A    between atoms: _232  and  _233
REMARK   99  A    between atoms: _236  and  _238
REMARK  100  A    between atoms: _238  and  _239
REMARK  101  A    between atoms: _238  and  _241
REMARK  102  A    between atoms: _241  and  _242
REMARK  103  A    between atoms: _247  and  _248
REMARK  104  A    between atoms: _250  and  _252
REMARK  105  A    between atoms: _252  and  _253
REMARK  106  A    between atoms: _256  and  _257
REMARK  107  A    between atoms: _262  and  _264
REMARK  108  A    between atoms: _264  and  _265
REMARK  109  A    between atoms: _264  and  _267
REMARK  110  A    between atoms: _267  and  _268
REMARK  111  A    between atoms: _271  and  _273
REMARK  112  A    between atoms: _273  and  _274
REMARK  113  A    between atoms: _276  and  _278
REMARK  114  A    between atoms: _278  and  _279
REMARK  115  A    between atoms: _278  and  _281
REMARK  116  A    between atoms: _284  and  _286
REMARK  117  A    between atoms: _286  and  _287
REMARK  118  A    between atoms: _289  and  _291
REMARK  119  A    between atoms: _291  and  _292
REMARK  120  A    between atoms: _291  and  _294
REMARK  121  A    between atoms: _294  and  _295
REMARK  122  A    between atoms: _295  and  _296
REMARK  123  A    between atoms: _296  and  _297
REMARK  124  A    between atoms: _306  and  _308
REMARK  125  A    between atoms: _308  and  _309
REMARK  126  A    between atoms: _308  and  _311
REMARK  127  A    between atoms: _311  and  _312
REMARK  128  A    between atoms: _315  and  _317
REMARK  129  A    between atoms: _317  and  _318
REMARK  130  A    between atoms: _317  and  _320
REMARK  131  A    between atoms: _320  and  _321
REMARK  132  A    between atoms: _324  and  _326
REMARK  133  A    between atoms: _326  and  _327
REMARK  134  A    between atoms: _326  and  _329
REMARK  135  A    between atoms: _329  and  _330
REMARK  136  A    between atoms: _333  and  _335
REMARK  137  A    between atoms: _335  and  _336
REMARK  138  A    between atoms: _339  and  _341
REMARK  139  A    between atoms: _341  and  _342
REMARK  140  A    between atoms: _345  and  _347
REMARK  141  A    between atoms: _347  and  _348
REMARK  142  A    between atoms: _347  and  _350
REMARK  143  A    between atoms: _350  and  _351
REMARK  144  A    between atoms: _351  and  _352
REMARK  145  A    between atoms: _357  and  _359
REMARK  146  A    between atoms: _359  and  _360
REMARK  147  A    between atoms: _359  and  _362
REMARK  148  A    between atoms: _362  and  _363
REMARK  149  A    between atoms: _366  and  _368
REMARK  150  A    between atoms: _368  and  _369
REMARK  151  A    between atoms: _368  and  _371
REMARK  152  A    between atoms: _371  and  _372
REMARK  153  A    between atoms: _375  and  _377
REMARK  154  A    between atoms: _377  and  _378
REMARK  155  A    between atoms: _377  and  _380
REMARK  156  A    between atoms: _383  and  _385
REMARK  157  A    between atoms: _385  and  _386
REMARK  158  A    between atoms: _385  and  _388
REMARK  159  A    between atoms: _388  and  _389
REMARK  160  A    between atoms: _392  and  _394
REMARK  161  A    between atoms: _394  and  _395
REMARK  162  A    between atoms: _394  and  _397
REMARK  163  A    between atoms: _397  and  _398
REMARK  164  A    between atoms: _400  and  _402
REMARK  165  A    between atoms: _402  and  _403
REMARK  166  A    between atoms: _402  and  _405
REMARK  167  A    between atoms: _405  and  _406
REMARK  168  A    between atoms: _406  and  _407
REMARK  169  A    between atoms: _407  and  _408
REMARK  170  A    between atoms: _417  and  _419
REMARK  171  A    between atoms: _419  and  _420
REMARK  172  A    between atoms: _419  and  _422
REMARK  173  A    between atoms: _422  and  _423
REMARK  174  A    between atoms: _425  and  _427
REMARK  175  A    between atoms: _427  and  _428
REMARK  176  A    between atoms: _431  and  _433
REMARK  177  A    between atoms: _433  and  _434
REMARK  178  A    between atoms: _433  and  _436
REMARK  179  A    between atoms: _436  and  _437
REMARK  180  A    between atoms: _443  and  _444
REMARK  181  A    between atoms: _449  and  _451
REMARK  182  A    between atoms: _451  and  _452
REMARK  183  A    between atoms: _451  and  _454
REMARK  184  A    between atoms: _454  and  _455
REMARK  185  A    between atoms: _455  and  _456
REMARK  186  A    between atoms: _459  and  _461
REMARK  187  A    between atoms: _461  and  _462
REMARK  188  A    between atoms: _461  and  _464
REMARK  189  A    between atoms: _464  and  _465
REMARK  190  A    between atoms: _465  and  _466
REMARK  191  A    between atoms: _466  and  _467
REMARK  192  A    between atoms: _476  and  _478
REMARK  193  A    between atoms: _478  and  _479
REMARK  194  A    between atoms: _478  and  _481
REMARK  195  A    between atoms: _481  and  _482
REMARK  196  A    between atoms: _485  and  _487
REMARK  197  A    between atoms: _487  and  _488
REMARK  198  A    between atoms: _491  and  _493
REMARK  199  A    between atoms: _493  and  _494
REMARK  200  A    between atoms: _493  and  _496
REMARK  201  A    between atoms: _496  and  _497
REMARK  202  A    between atoms: _499  and  _501
REMARK  203  A    between atoms: _501  and  _502
REMARK  204  A    between atoms: _501  and  _504
REMARK  205  A    between atoms: _504  and  _505
REMARK  206  A    between atoms: _510  and  _512
REMARK  207  A    between atoms: _512  and  _513
REMARK  208  A    between atoms: _512  and  _515
REMARK  209  A    between atoms: _515  and  _516
REMARK  210  A    between atoms: _519  and  _521
REMARK  211  A    between atoms: _521  and  _522
REMARK  212  A    between atoms: _521  and  _524
REMARK  213  A    between atoms: _524  and  _525
REMARK  214  A    between atoms: _528  and  _530
REMARK  215  A    between atoms: _530  and  _531
REMARK  216  A    between atoms: _530  and  _533
REMARK  217  A    between atoms: _533  and  _534
REMARK  218  A    between atoms: _540  and  _542
REMARK  219  A    between atoms: _542  and  _543
REMARK  220  A    between atoms: _542  and  _545
REMARK  221  A    between atoms: _545  and  _546
REMARK  222  A    between atoms: _546  and  _547
REMARK  223  A    between atoms: _547  and  _548
REMARK                            x       y       z     vdW  Elec       q    Type
REMARK                         _______ _______ _______ _____ _____    ______ ____
ROOT
ATOM      1  C   GLY A   6       3.475  44.099  -3.022  0.00  0.00    +0.243 C 
ATOM      2  N   VAL A   7       4.777  44.138  -2.742  0.00  0.00    -0.297 N 
ATOM      3  H   VAL A   7       5.152  45.035  -2.372  0.00  0.00    +0.150 HD
ATOM      4  O   GLY A   6       2.883  43.077  -3.371  0.00  0.00    -0.273 OA
ENDROOT
BRANCH   1   5
ATOM      5  CA  GLY A   6       2.719  45.421  -2.902  0.00  0.00    +0.176 C 
BRANCH   5   7
ATOM      6  C   LEU A   5       3.543  46.433  -4.995  0.00  0.00    +0.241 C 
ATOM      7  N   GLY A   6       3.275  46.537  -3.690  0.00  0.00    -0.295 N 
ATOM      8  H   GLY A   6       3.466  47.440  -3.211  0.00  0.00    +0.150 HD
ATOM      9  O   LEU A   5       3.283  45.417  -5.664  0.00  0.00    -0.273 OA
BRANCH   6  10
ATOM     10  CA  LEU A   5       4.228  47.645  -5.643  0.00  0.00    +0.149 C 
BRANCH  10  12
ATOM     11  C   PRO A   4       3.715  49.800  -4.571  0.00  0.00    +0.241 C 
ATOM     12  N   LEU A   5       4.494  48.722  -4.676  0.00  0.00    -0.297 N 
ATOM     13  H   LEU A   5       5.321  48.640  -4.051  0.00  0.00    +0.150 HD
ATOM     14  O   PRO A   4       2.696  49.975  -5.248  0.00  0.00    -0.273 OA
BRANCH  11  21
ATOM     15  C   GLY A   3       4.640  49.477  -1.562  0.00  0.00    +0.246 C 
ATOM     16  O   GLY A   3       3.556  48.880  -1.640  0.00  0.00    -0.273 OA
ATOM     17  N   PRO A   4       5.039  50.387  -2.490  0.00  0.00    -0.272 N 
ATOM     18  CD  PRO A   4       6.373  51.007  -2.626  0.00  0.00    +0.094 C 
ATOM     19  CG  PRO A   4       6.359  51.579  -4.016  0.00  0.00    +0.024 C 
ATOM     20  CB  PRO A   4       4.876  51.980  -4.236  0.00  0.00    +0.031 C 
ATOM     21  CA  PRO A   4       4.096  50.857  -3.535  0.00  0.00    +0.152 C 
BRANCH  15  22
ATOM     22  CA  GLY A   3       5.583  49.183  -0.402  0.00  0.00    +0.176 C 
BRANCH  22  25
ATOM     23  C   TYR A   2       5.543  51.357   0.726  0.00  0.00    +0.241 C 
ATOM     24  O   TYR A   2       4.312  51.363   0.794  0.00  0.00    -0.273 OA
ATOM     25  N   GLY A   3       6.235  50.355   0.183  0.00  0.00    -0.295 N 
ATOM     26  H   GLY A   3       7.274  50.408   0.175  0.00  0.00    +0.150 HD
BRANCH  23  27
ATOM     27  CA  TYR A   2       6.365  52.567   1.211  0.00  0.00    +0.153 C 
BRANCH  27  29
ATOM     28  C   ALA A   1       5.667  54.869   0.758  0.00  0.00    +0.238 C 
ATOM     29  N   TYR A   2       5.522  53.740   1.458  0.00  0.00    -0.297 N 
ATOM     30  H   TYR A   2       4.792  53.693   2.197  0.00  0.00    +0.150 HD
ATOM     31  O   ALA A   1       6.647  55.098   0.012  0.00  0.00    -0.274 OA
BRANCH  28  32
ATOM     32  CA  ALA A   1       4.551  55.906   0.911  0.00  0.00    +0.145 C 
ATOM     33  CB  ALA A   1       3.739  55.977  -0.367  0.00  0.00    +0.028 C 
BRANCH  32  34
ATOM     34  N   ALA A   1       5.120  57.213   1.199  0.00  0.00    -0.238 NA
ATOM     35  H   ALA A   1       5.322  57.866   0.415  0.00  0.00    +0.142 HD
ENDBRANCH  32  34
ENDBRANCH  28  32
ENDBRANCH  27  29
BRANCH  27  36
ATOM     36  CB  TYR A   2       7.273  52.235   2.406  0.00  0.00    +0.055 C 
BRANCH  36  37
ATOM     37  CG  TYR A   2       6.623  51.560   3.594  0.00  0.00    -0.020 A 
ATOM     38  CD2 TYR A   2       6.299  52.295   4.734  0.00  0.00    -0.001 A 
ATOM     39  CE2 TYR A   2       5.735  51.667   5.873  0.00  0.00    +0.036 A 
ATOM     40  CZ  TYR A   2       5.509  50.295   5.866  0.00  0.00    +0.134 A 
ATOM     41  CE1 TYR A   2       5.870  49.526   4.750  0.00  0.00    +0.036 A 
ATOM     42  CD1 TYR A   2       6.442  50.173   3.624  0.00  0.00    -0.001 A 
BRANCH  40  43
ATOM     43  OH  TYR A   2       4.998  49.661   6.988  0.00  0.00    -0.506 OA
ATOM     44  HH  TYR A   2       4.112  50.045   7.208  0.00  0.00    +0.292 HD
ENDBRANCH  40  43
ENDBRANCH  36  37
ENDBRANCH  27  36
ENDBRANCH  23  27
ENDBRANCH  22  25
ENDBRANCH  15  22
ENDBRANCH  11  21
ENDBRANCH  10  12
BRANCH  10  45
ATOM     45  CB  LEU A   5       5.521  47.197  -6.339  0.00  0.00    +0.029 C 
BRANCH  45  46
ATOM     46  CG  LEU A   5       6.354  48.277  -7.035  0.00  0.00    +0.002 C 
ATOM     47  CD2 LEU A   5       5.471  49.237  -7.876  0.00  0.00    +0.000 C 
ATOM     48  CD1 LEU A   5       7.443  47.600  -7.901  0.00  0.00    +0.000 C 
ENDBRANCH  45  46
ENDBRANCH  10  45
ENDBRANCH   6  10
ENDBRANCH   5   7
ENDBRANCH   1   5
BRANCH   2  49
ATOM     49  CA  VAL A   7       5.743  43.025  -2.908  0.00  0.00    +0.149 C 
BRANCH  49  50
ATOM     50  C   VAL A   7       5.719  42.429  -4.315  0.00  0.00    +0.241 C 
ATOM     51  O   VAL A   7       6.041  41.247  -4.532  0.00  0.00    -0.273 OA
ATOM     52  N   GLY A   8       5.354  43.276  -5.277  0.00  0.00    -0.295 N 
ATOM     53  H   GLY A   8       5.106  44.254  -5.025  0.00  0.00    +0.150 HD
BRANCH  52  54
ATOM     54  CA  GLY A   8       5.294  42.868  -6.665  0.00  0.00    +0.176 C 
BRANCH  54  55
ATOM     55  C   GLY A   8       3.977  42.245  -7.066  0.00  0.00    +0.243 C 
ATOM     56  N   ARG A   9       3.110  41.992  -6.091  0.00  0.00    -0.297 N 
ATOM     57  H   ARG A   9       3.355  42.254  -5.115  0.00  0.00    +0.150 HD
ATOM     58  O   GLY A   8       3.740  41.997  -8.251  0.00  0.00    -0.273 OA
BRANCH  56  59
ATOM     59  CA  ARG A   9       1.822  41.355  -6.355  0.00  0.00    +0.149 C 
BRANCH  59  60
ATOM     60  C   ARG A   9       0.891  42.228  -7.172  0.00  0.00    +0.241 C 
ATOM     61  N   LEU A  10       1.075  43.546  -7.067  0.00  0.00    -0.297 N 
ATOM     62  H   LEU A  10       1.853  43.908  -6.480  0.00  0.00    +0.150 HD
ATOM     63  O   ARG A   9       0.036  41.715  -7.912  0.00  0.00    -0.273 OA
BRANCH  61  64
ATOM     64  CA  LEU A  10       0.204  44.485  -7.761  0.00  0.00    +0.149 C 
BRANCH  64  65
ATOM     65  C   LEU A  10       0.545  44.654  -9.249  0.00  0.00    +0.241 C 
ATOM     66  N   LEU A  11       1.709  44.151  -9.647  0.00  0.00    -0.298 N 
ATOM     67  H   LEU A  11       2.285  43.618  -8.965  0.00  0.00    +0.150 HD
ATOM     68  O   LEU A  10      -0.241  45.232 -10.017  0.00  0.00    -0.273 OA
BRANCH  66  69
ATOM     69  CA  LEU A  11       2.207  44.322 -11.012  0.00  0.00    +0.137 C 
BRANCH  69  70
ATOM     70  C   LEU A  11       1.328  43.659 -12.066  0.00  0.00    +0.227 C 
ATOM     71  O   LEU A  11       1.349  44.059 -13.248  0.00  0.00    -0.286 OA
ENDBRANCH  69  70
BRANCH  69  72
ATOM     72  CB  LEU A  11       3.663  43.834 -11.139  0.00  0.00    +0.028 C 
BRANCH  72  73
ATOM     73  CG  LEU A  11       4.733  44.607 -10.362  0.00  0.00    +0.002 C 
ATOM     74  CD2 LEU A  11       6.119  43.963 -10.472  0.00  0.00    +0.000 C 
ATOM     75  CD1 LEU A  11       4.770  46.055 -10.837  0.00  0.00    +0.000 C 
ENDBRANCH  72  73
ENDBRANCH  69  72
ENDBRANCH  66  69
ENDBRANCH  64  65
BRANCH  64  76
ATOM     76  CB  LEU A  10       0.170  45.837  -7.022  0.00  0.00    +0.029 C 
BRANCH  76  77
ATOM     77  CG  LEU A  10      -0.400  45.739  -5.593  0.00  0.00    +0.002 C 
ATOM     78  CD2 LEU A  10      -0.467  47.118  -4.910  0.00  0.00    +0.000 C 
ATOM     79  CD1 LEU A  10      -1.764  45.095  -5.606  0.00  0.00    +0.000 C 
ENDBRANCH  76  77
ENDBRANCH  64  76
ENDBRANCH  61  64
ENDBRANCH  59  60
BRANCH  59  80
ATOM     80  CB  ARG A   9       1.137  40.996  -5.036  0.00  0.00    +0.033 C 
BRANCH  80  81
ATOM     81  CG  ARG A   9       1.887  39.949  -4.255  0.00  0.00    +0.045 C 
BRANCH  81  82
ATOM     82  CD  ARG A   9       1.181  39.632  -2.949  0.00  0.00    +0.174 C 
BRANCH  82  83
ATOM     83  NE  ARG A   9       2.092  38.947  -2.043  0.00  0.00    -0.265 N 
ATOM     84  CZ  ARG A   9       1.728  38.315  -0.931  0.00  0.00    +0.342 C 
ATOM     85  NH2 ARG A   9       2.660  37.727  -0.189  0.00  0.00    -0.292 N 
ATOM     86 HH21 ARG A   9       2.392  37.229   0.684  0.00  0.00    +0.255 HD
ATOM     87 HH22 ARG A   9       3.658  37.765  -0.481  0.00  0.00    +0.255 HD
ATOM     88  NH1 ARG A   9       0.445  38.261  -0.570  0.00  0.00    -0.292 N 
ATOM     89 HH11 ARG A   9       0.170  37.764   0.302  0.00  0.00    +0.255 HD
ATOM     90 HH12 ARG A   9      -0.281  38.716  -1.160  0.00  0.00    +0.255 HD
ATOM     91  HE  ARG A   9       3.104  38.952  -2.284  0.00  0.00    +0.259 HD
ENDBRANCH  82  83
ENDBRANCH  81  82
ENDBRANCH  80  81
ENDBRANCH  59  80
ENDBRANCH  56  59
ENDBRANCH  54  55
ENDBRANCH  52  54
ENDBRANCH  49  50
BRANCH  49  92
ATOM     92  CB  VAL A   7       5.649  41.932  -1.791  0.00  0.00    +0.027 C 
ATOM     93  CG2 VAL A   7       5.556  42.569  -0.405  0.00  0.00    +0.002 C 
ATOM     94  CG1 VAL A   7       4.505  40.977  -2.041  0.00  0.00    +0.002 C 
ENDBRANCH  49  92
ENDBRANCH   2  49
TORSDOF 35
REMARK  Name = ../refined-set-2016/2wzm/2wzm_pocket.pdb
REMARK  223 active torsions:
REMARK  status: ('A' for Active; 'I' for Inactive)
REMARK    1  A    between atoms: _1  and  _3
REMARK    2  A    between atoms: _3  and  _4
REMARK    3  A    between atoms: _6  and  _8
REMARK    4  A    between atoms: _8  and  _9
REMARK    5  A    between atoms: _8  and  _11
REMARK    6  A    between atoms: _11  and  _12
REMARK    7  A    between atoms: _15  and  _17
REMARK    8  A    between atoms: _17  and  _18
REMARK    9  A    between atoms: _20  and  _22
REMARK   10  A    between atoms: _22  and  _23
REMARK   11  A    between atoms: _22  and  _25
REMARK   12  A    between atoms: _28  and  _30
REMARK   13  A    between atoms: _30  and  _31
REMARK   14  A    between atoms: _33  and  _35
REMARK   15  A    between atoms: _35  and  _36
REMARK   16  A    between atoms: _35  and  _38
REMARK   17  A    between atoms: _38  and  _39
REMARK   18  A    between atoms: _39  and  _40
REMARK   19  A    between atoms: _43  and  _45
REMARK   20  A    between atoms: _45  and  _46
REMARK   21  A    between atoms: _45  and  _48
REMARK   22  A    between atoms: _48  and  _49
REMARK   23  A    between atoms: _52  and  _54
REMARK   24  A    between atoms: _54  and  _55
REMARK   25  A    between atoms: _54  and  _57
REMARK   26  A    between atoms: _57  and  _58
REMARK   27  A    between atoms: _58  and  _59
REMARK   28  A    between atoms: _62  and  _64
REMARK   29  A    between atoms: _64  and  _65
REMARK   30  A    between atoms: _64  and  _67
REMARK   31  A    between atoms: _67  and  _68
REMARK   32  A    between atoms: _68  and  _69
REMARK   33  A    between atoms: _69  and  _70
REMARK   34  A    between atoms: _79  and  _81
REMARK   35  A    between atoms: _81  and  _82
REMARK   36  A    between atoms: _81  and  _84
REMARK   37  A    between atoms: _84  and  _85
REMARK   38  A    between atoms: _87  and  _89
REMARK   39  A    between atoms: _89  and  _90
REMARK   40  A    between atoms: _89  and  _92
REMARK   41  A    between atoms: _92  and  _93
REMARK   42  A    between atoms: _98  and  _99
REMARK   43  A    between atoms: _101  and  _103
REMARK   44  A    between atoms: _103  and  _104
REMARK   45  A    between atoms: _103  and  _106
REMARK   46  A    between atoms: _106  and  _107
REMARK   47  A    between atoms: _110  and  _112
REMARK   48  A    between atoms: _112  and  _113
REMARK   49  A    between atoms: _112  and  _115
REMARK   50  A    between atoms: _115  and  _116
REMARK   51  A    between atoms: _119  and  _121
REMARK   52  A    between atoms: _121  and  _122
REMARK   53  A    between atoms: _121  and  _124
REMARK   54  A    between atoms: _124  and  _125
REMARK   55  A    between atoms: _130  and  _131
REMARK   56  A    between atoms: _133  and  _135
REMARK   57  A    between atoms: _135  and  _136
REMARK   58  A    between atoms: _135  and  _138
REMARK   59  A    between atoms: _138  and  _139
REMARK   60  A    between atoms: _144  and  _146
REMARK   61  A    between atoms: _146  and  _147
REMARK   62  A    between atoms: _146  and  _149
REMARK   63  A    between atoms: _149  and  _150
REMARK   64  A    between atoms: _150  and  _151
REMARK   65  A    between atoms: _151  and  _152
REMARK   66  A    between atoms: _152  and  _153
REMARK   67  A    between atoms: _157  and  _159
REMARK   68  A    between atoms: _159  and  _160
REMARK   69  A    between atoms: _159  and  _162
REMARK   70  A    between atoms: _162  and  _163
REMARK   71  A    between atoms: _168  and  _170
REMARK   72  A    between atoms: _170  and  _171
REMARK   73  A    between atoms: _170  and  _173
REMARK   74  A    between atoms: _173  and  _174
REMARK   75  A    between atoms: _179  and  _181
REMARK   76  A    between atoms: _181  and  _182
REMARK   77  A    between atoms: _181  and  _184
REMARK   78  A    between atoms: _184  and  _185
REMARK   79  A    between atoms: _185  and  _186
REMARK   80  A    between atoms: _191  and  _193
REMARK   81  A    between atoms: _193  and  _194
REMARK   82  A    between atoms: _193  and  _196
REMARK   83  A    between atoms: _196  and  _197
REMARK   84  A    between atoms: _200  and  _202
REMARK   85  A    between atoms: _202  and  _203
REMARK   86  A    between atoms: _202  and  _205
REMARK   87  A    between atoms: _205  and  _206
REMARK   88  A    between atoms: _206  and  _207
REMARK   89  A    between atoms: _210  and  _212
REMARK   90  A    between atoms: _212  and  _213
REMARK   91  A    between atoms: _212  and  _215
REMARK   92  A    between atoms: _215  and  _216
REMARK   93  A    between atoms: _219  and  _221
REMARK   94  A    between atoms: _221  and  _222
REMARK   95  A    between atoms: _221  and  _224
REMARK   96  A    between atoms: _224  and  _225
REMARK   97  A    between atoms: _230  and  _232
REMARK   98  A    between atoms: _232  and  _233
REMARK   99  A    between atoms: _236  and  _238
REMARK  100  A    between atoms: _238  and  _239
REMARK  101  A    between atoms: _238  and  _241
REMARK  102  A    between atoms: _241  and  _242
REMARK  103  A    between atoms: _247  and  _248
REMARK  104  A    between atoms: _250  and  _252
REMARK  105  A    between atoms: _252  and  _253
REMARK  106  A    between atoms: _256  and  _257
REMARK  107  A    between atoms: _262  and  _264
REMARK  108  A    between atoms: _264  and  _265
REMARK  109  A    between atoms: _264  and  _267
REMARK  110  A    between atoms: _267  and  _268
REMARK  111  A    between atoms: _271  and  _273
REMARK  112  A    between atoms: _273  and  _274
REMARK  113  A    between atoms: _276  and  _278
REMARK  114  A    between atoms: _278  and  _279
REMARK  115  A    between atoms: _278  and  _281
REMARK  116  A    between atoms: _284  and  _286
REMARK  117  A    between atoms: _286  and  _287
REMARK  118  A    between atoms: _289  and  _291
REMARK  119  A    between atoms: _291  and  _292
REMARK  120  A    between atoms: _291  and  _294
REMARK  121  A    between atoms: _294  and  _295
REMARK  122  A    between atoms: _295  and  _296
REMARK  123  A    between atoms: _296  and  _297
REMARK  124  A    between atoms: _306  and  _308
REMARK  125  A    between atoms: _308  and  _309
REMARK  126  A    between atoms: _308  and  _311
REMARK  127  A    between atoms: _311  and  _312
REMARK  128  A    between atoms: _315  and  _317
REMARK  129  A    between atoms: _317  and  _318
REMARK  130  A    between atoms: _317  and  _320
REMARK  131  A    between atoms: _320  and  _321
REMARK  132  A    between atoms: _324  and  _326
REMARK  133  A    between atoms: _326  and  _327
REMARK  134  A    between atoms: _326  and  _329
REMARK  135  A    between atoms: _329  and  _330
REMARK  136  A    between atoms: _333  and  _335
REMARK  137  A    between atoms: _335  and  _336
REMARK  138  A    between atoms: _339  and  _341
REMARK  139  A    between atoms: _341  and  _342
REMARK  140  A    between atoms: _345  and  _347
REMARK  141  A    between atoms: _347  and  _348
REMARK  142  A    between atoms: _347  and  _350
REMARK  143  A    between atoms: _350  and  _351
REMARK  144  A    between atoms: _351  and  _352
REMARK  145  A    between atoms: _357  and  _359
REMARK  146  A    between atoms: _359  and  _360
REMARK  147  A    between atoms: _359  and  _362
REMARK  148  A    between atoms: _362  and  _363
REMARK  149  A    between atoms: _366  and  _368
REMARK  150  A    between atoms: _368  and  _369
REMARK  151  A    between atoms: _368  and  _371
REMARK  152  A    between atoms: _371  and  _372
REMARK  153  A    between atoms: _375  and  _377
REMARK  154  A    between atoms: _377  and  _378
REMARK  155  A    between atoms: _377  and  _380
REMARK  156  A    between atoms: _383  and  _385
REMARK  157  A    between atoms: _385  and  _386
REMARK  158  A    between atoms: _385  and  _388
REMARK  159  A    between atoms: _388  and  _389
REMARK  160  A    between atoms: _392  and  _394
REMARK  161  A    between atoms: _394  and  _395
REMARK  162  A    between atoms: _394  and  _397
REMARK  163  A    between atoms: _397  and  _398
REMARK  164  A    between atoms: _400  and  _402
REMARK  165  A    between atoms: _402  and  _403
REMARK  166  A    between atoms: _402  and  _405
REMARK  167  A    between atoms: _405  and  _406
REMARK  168  A    between atoms: _406  and  _407
REMARK  169  A    between atoms: _407  and  _408
REMARK  170  A    between atoms: _417  and  _419
REMARK  171  A    between atoms: _419  and  _420
REMARK  172  A    between atoms: _419  and  _422
REMARK  173  A    between atoms: _422  and  _423
REMARK  174  A    between atoms: _425  and  _427
REMARK  175  A    between atoms: _427  and  _428
REMARK  176  A    between atoms: _431  and  _433
REMARK  177  A    between atoms: _433  and  _434
REMARK  178  A    between atoms: _433  and  _436
REMARK  179  A    between atoms: _436  and  _437
REMARK  180  A    between atoms: _443  and  _444
REMARK  181  A    between atoms: _449  and  _451
REMARK  182  A    between atoms: _451  and  _452
REMARK  183  A    between atoms: _451  and  _454
REMARK  184  A    between atoms: _454  and  _455
REMARK  185  A    between atoms: _455  and  _456
REMARK  186  A    between atoms: _459  and  _461
REMARK  187  A    between atoms: _461  and  _462
REMARK  188  A    between atoms: _461  and  _464
REMARK  189  A    between atoms: _464  and  _465
REMARK  190  A    between atoms: _465  and  _466
REMARK  191  A    between atoms: _466  and  _467
REMARK  192  A    between atoms: _476  and  _478
REMARK  193  A    between atoms: _478  and  _479
REMARK  194  A    between atoms: _478  and  _481
REMARK  195  A    between atoms: _481  and  _482
REMARK  196  A    between atoms: _485  and  _487
REMARK  197  A    between atoms: _487  and  _488
REMARK  198  A    between atoms: _491  and  _493
REMARK  199  A    between atoms: _493  and  _494
REMARK  200  A    between atoms: _493  and  _496
REMARK  201  A    between atoms: _496  and  _497
REMARK  202  A    between atoms: _499  and  _501
REMARK  203  A    between atoms: _501  and  _502
REMARK  204  A    between atoms: _501  and  _504
REMARK  205  A    between atoms: _504  and  _505
REMARK  206  A    between atoms: _510  and  _512
REMARK  207  A    between atoms: _512  and  _513
REMARK  208  A    between atoms: _512  and  _515
REMARK  209  A    between atoms: _515  and  _516
REMARK  210  A    between atoms: _519  and  _521
REMARK  211  A    between atoms: _521  and  _522
REMARK  212  A    between atoms: _521  and  _524
REMARK  213  A    between atoms: _524  and  _525
REMARK  214  A    between atoms: _528  and  _530
REMARK  215  A    between atoms: _530  and  _531
REMARK  216  A    between atoms: _530  and  _533
REMARK  217  A    between atoms: _533  and  _534
REMARK  218  A    between atoms: _540  and  _542
REMARK  219  A    between atoms: _542  and  _543
REMARK  220  A    between atoms: _542  and  _545
REMARK  221  A    between atoms: _545  and  _546
REMARK  222  A    between atoms: _546  and  _547
REMARK  223  A    between atoms: _547  and  _548
REMARK                            x       y       z     vdW  Elec       q    Type
REMARK                         _______ _______ _______ _____ _____    ______ ____
ROOT
ATOM      1  C   ALA A   2       3.365  49.138 -13.252  0.00  0.00    +0.241 C 
ATOM      2  O   ALA A   2       2.754  49.895 -12.496  0.00  0.00    -0.273 OA
ATOM      3  N   ALA A   3       4.660  48.877 -13.083  0.00  0.00    -0.297 N 
ATOM      4  H   ALA A   3       5.142  48.217 -13.726  0.00  0.00    +0.150 HD
ENDROOT
BRANCH   1   5
ATOM      5  CA  ALA A   2       2.652  48.445 -14.429  0.00  0.00    +0.149 C 
ATOM      6  CB  ALA A   2       2.271  47.005 -14.080  0.00  0.00    +0.031 C 
BRANCH   5   8
ATOM      7  C   THR A   1       3.903  49.627 -16.164  0.00  0.00    +0.241 C 
ATOM      8  N   ALA A   2       3.463  48.469 -15.657  0.00  0.00    -0.297 N 
ATOM      9  H   ALA A   2       3.697  47.576 -16.136  0.00  0.00    +0.150 HD
ATOM     10  O   THR A   1       3.581  50.721 -15.701  0.00  0.00    -0.274 OA
BRANCH   7  11
ATOM     11  CA  THR A   1       4.878  49.539 -17.348  0.00  0.00    +0.172 C 
BRANCH  11  12
ATOM     12  N   THR A   1       4.953  50.810 -18.108  0.00  0.00    -0.236 NA
ATOM     13  H   THR A   1       5.670  51.526 -17.873  0.00  0.00    +0.142 HD
ENDBRANCH  11  12
BRANCH  11  14
ATOM     14  CB  THR A   1       6.241  49.126 -16.803  0.00  0.00    +0.135 C 
ATOM     15  CG2 THR A   1       7.299  49.089 -17.934  0.00  0.00    +0.034 C 
BRANCH  14  16
ATOM     16  OG1 THR A   1       6.632  50.070 -15.800  0.00  0.00    -0.383 OA
ATOM     17  HG1 THR A   1       6.687  50.973 -16.202  0.00  0.00    +0.210 HD
ENDBRANCH  14  16
ENDBRANCH  11  14
ENDBRANCH   7  11
ENDBRANCH   5   8
ENDBRANCH   1   5
BRANCH   3  18
ATOM     18  CA  ALA A   3       5.404  49.507 -12.007  0.00  0.00    +0.149 C 
ATOM     19  CB  ALA A   3       6.846  49.013 -12.013  0.00  0.00    +0.031 C 
BRANCH  18  20
ATOM     20  C   ALA A   3       5.386  51.018 -12.166  0.00  0.00    +0.241 C 
ATOM     21  O   ALA A   3       5.207  51.748 -11.181  0.00  0.00    -0.273 OA
ATOM     22  N   GLN A   4       5.596  51.493 -13.399  0.00  0.00    -0.298 N 
ATOM     23  H   GLN A   4       5.784  50.847 -14.192  0.00  0.00    +0.150 HD
BRANCH  22  24
ATOM     24  CA  GLN A   4       5.555  52.949 -13.609  0.00  0.00    +0.137 C 
BRANCH  24  25
ATOM     25  C   GLN A   4       4.190  53.504 -13.233  0.00  0.00    +0.227 C 
ATOM     26  O   GLN A   4       4.119  54.574 -12.620  0.00  0.00    -0.286 OA
ENDBRANCH  24  25
BRANCH  24  27
ATOM     27  CB  GLN A   4       5.892  53.311 -15.062  0.00  0.00    +0.037 C 
BRANCH  27  28
ATOM     28  CG  GLN A   4       7.377  53.203 -15.400  0.00  0.00    +0.087 C 
BRANCH  28  29
ATOM     29  CD  GLN A   4       7.645  53.462 -16.897  0.00  0.00    +0.219 C 
ATOM     30  NE2 GLN A   4       8.459  54.472 -17.191  0.00  0.00    -0.329 N 
ATOM     31 HE21 GLN A   4       8.911  55.015 -16.428  0.00  0.00    +0.145 HD
ATOM     32 HE22 GLN A   4       8.644  54.719 -18.184  0.00  0.00    +0.145 HD
ATOM     33  OE1 GLN A   4       7.093  52.797 -17.763  0.00  0.00    -0.275 OA
ENDBRANCH  28  29
ENDBRANCH  27  28
ENDBRANCH  24  27
ENDBRANCH  22  24
ENDBRANCH  18  20
ENDBRANCH   3  18
TORSDOF 13
REMARK  Name = ../refined-set-2016/2wzm/2wzm_pocket.pdb
REMARK  223 active torsions:
REMARK  status: ('A' for Active; 'I' for Inactive)
REMARK    1  A    between atoms: _1  and  _3
REMARK    2  A    between atoms: _3  and  _4
REMARK    3  A    between atoms: _6  and  _8
REMARK    4  A    between atoms: _8  and  _9
REMARK    5  A    between atoms: _8  and  _11
REMARK    6  A    between atoms: _11  and  _12
REMARK    7  A    between atoms: _15  and  _17
REMARK    8  A    between atoms: _17  and  _18
REMARK    9  A    between atoms: _20  and  _22
REMARK   10  A    between atoms: _22  and  _23
REMARK   11  A    between atoms: _22  and  _25
REMARK   12  A    between atoms: _28  and  _30
REMARK   13  A    between atoms: _30  and  _31
REMARK   14  A    between atoms: _33  and  _35
REMARK   15  A    between atoms: _35  and  _36
REMARK   16  A    between atoms: _35  and  _38
REMARK   17  A    between atoms: _38  and  _39
REMARK   18  A    between atoms: _39  and  _40
REMARK   19  A    between atoms: _43  and  _45
REMARK   20  A    between atoms: _45  and  _46
REMARK   21  A    between atoms: _45  and  _48
REMARK   22  A    between atoms: _48  and  _49
REMARK   23  A    between atoms: _52  and  _54
REMARK   24  A    between atoms: _54  and  _55
REMARK   25  A    between atoms: _54  and  _57
REMARK   26  A    between atoms: _57  and  _58
REMARK   27  A    between atoms: _58  and  _59
REMARK   28  A    between atoms: _62  and  _64
REMARK   29  A    between atoms: _64  and  _65
REMARK   30  A    between atoms: _64  and  _67
REMARK   31  A    between atoms: _67  and  _68
REMARK   32  A    between atoms: _68  and  _69
REMARK   33  A    between atoms: _69  and  _70
REMARK   34  A    between atoms: _79  and  _81
REMARK   35  A    between atoms: _81  and  _82
REMARK   36  A    between atoms: _81  and  _84
REMARK   37  A    between atoms: _84  and  _85
REMARK   38  A    between atoms: _87  and  _89
REMARK   39  A    between atoms: _89  and  _90
REMARK   40  A    between atoms: _89  and  _92
REMARK   41  A    between atoms: _92  and  _93
REMARK   42  A    between atoms: _98  and  _99
REMARK   43  A    between atoms: _101  and  _103
REMARK   44  A    between atoms: _103  and  _104
REMARK   45  A    between atoms: _103  and  _106
REMARK   46  A    between atoms: _106  and  _107
REMARK   47  A    between atoms: _110  and  _112
REMARK   48  A    between atoms: _112  and  _113
REMARK   49  A    between atoms: _112  and  _115
REMARK   50  A    between atoms: _115  and  _116
REMARK   51  A    between atoms: _119  and  _121
REMARK   52  A    between atoms: _121  and  _122
REMARK   53  A    between atoms: _121  and  _124
REMARK   54  A    between atoms: _124  and  _125
REMARK   55  A    between atoms: _130  and  _131
REMARK   56  A    between atoms: _133  and  _135
REMARK   57  A    between atoms: _135  and  _136
REMARK   58  A    between atoms: _135  and  _138
REMARK   59  A    between atoms: _138  and  _139
REMARK   60  A    between atoms: _144  and  _146
REMARK   61  A    between atoms: _146  and  _147
REMARK   62  A    between atoms: _146  and  _149
REMARK   63  A    between atoms: _149  and  _150
REMARK   64  A    between atoms: _150  and  _151
REMARK   65  A    between atoms: _151  and  _152
REMARK   66  A    between atoms: _152  and  _153
REMARK   67  A    between atoms: _157  and  _159
REMARK   68  A    between atoms: _159  and  _160
REMARK   69  A    between atoms: _159  and  _162
REMARK   70  A    between atoms: _162  and  _163
REMARK   71  A    between atoms: _168  and  _170
REMARK   72  A    between atoms: _170  and  _171
REMARK   73  A    between atoms: _170  and  _173
REMARK   74  A    between atoms: _173  and  _174
REMARK   75  A    between atoms: _179  and  _181
REMARK   76  A    between atoms: _181  and  _182
REMARK   77  A    between atoms: _181  and  _184
REMARK   78  A    between atoms: _184  and  _185
REMARK   79  A    between atoms: _185  and  _186
REMARK   80  A    between atoms: _191  and  _193
REMARK   81  A    between atoms: _193  and  _194
REMARK   82  A    between atoms: _193  and  _196
REMARK   83  A    between atoms: _196  and  _197
REMARK   84  A    between atoms: _200  and  _202
REMARK   85  A    between atoms: _202  and  _203
REMARK   86  A    between atoms: _202  and  _205
REMARK   87  A    between atoms: _205  and  _206
REMARK   88  A    between atoms: _206  and  _207
REMARK   89  A    between atoms: _210  and  _212
REMARK   90  A    between atoms: _212  and  _213
REMARK   91  A    between atoms: _212  and  _215
REMARK   92  A    between atoms: _215  and  _216
REMARK   93  A    between atoms: _219  and  _221
REMARK   94  A    between atoms: _221  and  _222
REMARK   95  A    between atoms: _221  and  _224
REMARK   96  A    between atoms: _224  and  _225
REMARK   97  A    between atoms: _230  and  _232
REMARK   98  A    between atoms: _232  and  _233
REMARK   99  A    between atoms: _236  and  _238
REMARK  100  A    between atoms: _238  and  _239
REMARK  101  A    between atoms: _238  and  _241
REMARK  102  A    between atoms: _241  and  _242
REMARK  103  A    between atoms: _247  and  _248
REMARK  104  A    between atoms: _250  and  _252
REMARK  105  A    between atoms: _252  and  _253
REMARK  106  A    between atoms: _256  and  _257
REMARK  107  A    between atoms: _262  and  _264
REMARK  108  A    between atoms: _264  and  _265
REMARK  109  A    between atoms: _264  and  _267
REMARK  110  A    between atoms: _267  and  _268
REMARK  111  A    between atoms: _271  and  _273
REMARK  112  A    between atoms: _273  and  _274
REMARK  113  A    between atoms: _276  and  _278
REMARK  114  A    between atoms: _278  and  _279
REMARK  115  A    between atoms: _278  and  _281
REMARK  116  A    between atoms: _284  and  _286
REMARK  117  A    between atoms: _286  and  _287
REMARK  118  A    between atoms: _289  and  _291
REMARK  119  A    between atoms: _291  and  _292
REMARK  120  A    between atoms: _291  and  _294
REMARK  121  A    between atoms: _294  and  _295
REMARK  122  A    between atoms: _295  and  _296
REMARK  123  A    between atoms: _296  and  _297
REMARK  124  A    between atoms: _306  and  _308
REMARK  125  A    between atoms: _308  and  _309
REMARK  126  A    between atoms: _308  and  _311
REMARK  127  A    between atoms: _311  and  _312
REMARK  128  A    between atoms: _315  and  _317
REMARK  129  A    between atoms: _317  and  _318
REMARK  130  A    between atoms: _317  and  _320
REMARK  131  A    between atoms: _320  and  _321
REMARK  132  A    between atoms: _324  and  _326
REMARK  133  A    between atoms: _326  and  _327
REMARK  134  A    between atoms: _326  and  _329
REMARK  135  A    between atoms: _329  and  _330
REMARK  136  A    between atoms: _333  and  _335
REMARK  137  A    between atoms: _335  and  _336
REMARK  138  A    between atoms: _339  and  _341
REMARK  139  A    between atoms: _341  and  _342
REMARK  140  A    between atoms: _345  and  _347
REMARK  141  A    between atoms: _347  and  _348
REMARK  142  A    between atoms: _347  and  _350
REMARK  143  A    between atoms: _350  and  _351
REMARK  144  A    between atoms: _351  and  _352
REMARK  145  A    between atoms: _357  and  _359
REMARK  146  A    between atoms: _359  and  _360
REMARK  147  A    between atoms: _359  and  _362
REMARK  148  A    between atoms: _362  and  _363
REMARK  149  A    between atoms: _366  and  _368
REMARK  150  A    between atoms: _368  and  _369
REMARK  151  A    between atoms: _368  and  _371
REMARK  152  A    between atoms: _371  and  _372
REMARK  153  A    between atoms: _375  and  _377
REMARK  154  A    between atoms: _377  and  _378
REMARK  155  A    between atoms: _377  and  _380
REMARK  156  A    between atoms: _383  and  _385
REMARK  157  A    between atoms: _385  and  _386
REMARK  158  A    between atoms: _385  and  _388
REMARK  159  A    between atoms: _388  and  _389
REMARK  160  A    between atoms: _392  and  _394
REMARK  161  A    between atoms: _394  and  _395
REMARK  162  A    between atoms: _394  and  _397
REMARK  163  A    between atoms: _397  and  _398
REMARK  164  A    between atoms: _400  and  _402
REMARK  165  A    between atoms: _402  and  _403
REMARK  166  A    between atoms: _402  and  _405
REMARK  167  A    between atoms: _405  and  _406
REMARK  168  A    between atoms: _406  and  _407
REMARK  169  A    between atoms: _407  and  _408
REMARK  170  A    between atoms: _417  and  _419
REMARK  171  A    between atoms: _419  and  _420
REMARK  172  A    between atoms: _419  and  _422
REMARK  173  A    between atoms: _422  and  _423
REMARK  174  A    between atoms: _425  and  _427
REMARK  175  A    between atoms: _427  and  _428
REMARK  176  A    between atoms: _431  and  _433
REMARK  177  A    between atoms: _433  and  _434
REMARK  178  A    between atoms: _433  and  _436
REMARK  179  A    between atoms: _436  and  _437
REMARK  180  A    between atoms: _443  and  _444
REMARK  181  A    between atoms: _449  and  _451
REMARK  182  A    between atoms: _451  and  _452
REMARK  183  A    between atoms: _451  and  _454
REMARK  184  A    between atoms: _454  and  _455
REMARK  185  A    between atoms: _455  and  _456
REMARK  186  A    between atoms: _459  and  _461
REMARK  187  A    between atoms: _461  and  _462
REMARK  188  A    between atoms: _461  and  _464
REMARK  189  A    between atoms: _464  and  _465
REMARK  190  A    between atoms: _465  and  _466
REMARK  191  A    between atoms: _466  and  _467
REMARK  192  A    between atoms: _476  and  _478
REMARK  193  A    between atoms: _478  and  _479
REMARK  194  A    between atoms: _478  and  _481
REMARK  195  A    between atoms: _481  and  _482
REMARK  196  A    between atoms: _485  and  _487
REMARK  197  A    between atoms: _487  and  _488
REMARK  198  A    between atoms: _491  and  _493
REMARK  199  A    between atoms: _493  and  _494
REMARK  200  A    between atoms: _493  and  _496
REMARK  201  A    between atoms: _496  and  _497
REMARK  202  A    between atoms: _499  and  _501
REMARK  203  A    between atoms: _501  and  _502
REMARK  204  A    between atoms: _501  and  _504
REMARK  205  A    between atoms: _504  and  _505
REMARK  206  A    between atoms: _510  and  _512
REMARK  207  A    between atoms: _512  and  _513
REMARK  208  A    between atoms: _512  and  _515
REMARK  209  A    between atoms: _515  and  _516
REMARK  210  A    between atoms: _519  and  _521
REMARK  211  A    between atoms: _521  and  _522
REMARK  212  A    between atoms: _521  and  _524
REMARK  213  A    between atoms: _524  and  _525
REMARK  214  A    between atoms: _528  and  _530
REMARK  215  A    between atoms: _530  and  _531
REMARK  216  A    between atoms: _530  and  _533
REMARK  217  A    between atoms: _533  and  _534
REMARK  218  A    between atoms: _540  and  _542
REMARK  219  A    between atoms: _542  and  _543
REMARK  220  A    between atoms: _542  and  _545
REMARK  221  A    between atoms: _545  and  _546
REMARK  222  A    between atoms: _546  and  _547
REMARK  223  A    between atoms: _547  and  _548
REMARK                            x       y       z     vdW  Elec       q    Type
REMARK                         _______ _______ _______ _____ _____    ______ ____
ROOT
ATOM      1  C   LEU A   1       2.615  53.390  -8.827  0.00  0.00    +0.238 C 
ATOM      2  O   LEU A   1       2.154  53.996  -7.844  0.00  0.00    -0.274 OA
ATOM      3  N   LEU A   2       3.827  53.668  -9.329  0.00  0.00    -0.298 N 
ATOM      4  H   LEU A   2       4.185  53.141 -10.151  0.00  0.00    +0.150 HD
ENDROOT
BRANCH   1   5
ATOM      5  CA  LEU A   1       1.830  52.253  -9.530  0.00  0.00    +0.145 C 
BRANCH   5   6
ATOM      6  N   LEU A   1       1.989  52.296 -10.989  0.00  0.00    -0.238 NA
ATOM      7  H   LEU A   1       2.434  51.494 -11.480  0.00  0.00    +0.142 HD
ENDBRANCH   5   6
BRANCH   5   8
ATOM      8  CB  LEU A   1       2.285  50.881  -9.019  0.00  0.00    +0.026 C 
BRANCH   8   9
ATOM      9  CG  LEU A   1       1.253  49.772  -9.313  0.00  0.00    +0.002 C 
ATOM     10  CD2 LEU A   1       0.112  49.863  -8.339  0.00  0.00    +0.000 C 
ATOM     11  CD1 LEU A   1       1.882  48.395  -9.281  0.00  0.00    +0.000 C 
ENDBRANCH   8   9
ENDBRANCH   5   8
ENDBRANCH   1   5
BRANCH   3  12
ATOM     12  CA  LEU A   2       4.647  54.719  -8.714  0.00  0.00    +0.137 C 
BRANCH  12  13
ATOM     13  C   LEU A   2       4.111  56.092  -9.085  0.00  0.00    +0.227 C 
ATOM     14  O   LEU A   2       4.013  56.989  -8.246  0.00  0.00    -0.286 OA
ENDBRANCH  12  13
BRANCH  12  15
ATOM     15  CB  LEU A   2       6.101  54.567  -9.171  0.00  0.00    +0.028 C 
BRANCH  15  16
ATOM     16  CG  LEU A   2       6.746  53.213  -8.826  0.00  0.00    +0.002 C 
ATOM     17  CD2 LEU A   2       6.952  53.078  -7.318  0.00  0.00    +0.000 C 
ATOM     18  CD1 LEU A   2       8.072  53.094  -9.581  0.00  0.00    +0.000 C 
ENDBRANCH  15  16
ENDBRANCH  12  15
ENDBRANCH   3  12
TORSDOF 8
REMARK  Name = ../refined-set-2016/2wzm/2wzm_pocket.pdb
REMARK  223 active torsions:
REMARK  status: ('A' for Active; 'I' for Inactive)
REMARK    1  A    between atoms: _1  and  _3
REMARK    2  A    between atoms: _3  and  _4
REMARK    3  A    between atoms: _6  and  _8
REMARK    4  A    between atoms: _8  and  _9
REMARK    5  A    between atoms: _8  and  _11
REMARK    6  A    between atoms: _11  and  _12
REMARK    7  A    between atoms: _15  and  _17
REMARK    8  A    between atoms: _17  and  _18
REMARK    9  A    between atoms: _20  and  _22
REMARK   10  A    between atoms: _22  and  _23
REMARK   11  A    between atoms: _22  and  _25
REMARK   12  A    between atoms: _28  and  _30
REMARK   13  A    between atoms: _30  and  _31
REMARK   14  A    between atoms: _33  and  _35
REMARK   15  A    between atoms: _35  and  _36
REMARK   16  A    between atoms: _35  and  _38
REMARK   17  A    between atoms: _38  and  _39
REMARK   18  A    between atoms: _39  and  _40
REMARK   19  A    between atoms: _43  and  _45
REMARK   20  A    between atoms: _45  and  _46
REMARK   21  A    between atoms: _45  and  _48
REMARK   22  A    between atoms: _48  and  _49
REMARK   23  A    between atoms: _52  and  _54
REMARK   24  A    between atoms: _54  and  _55
REMARK   25  A    between atoms: _54  and  _57
REMARK   26  A    between atoms: _57  and  _58
REMARK   27  A    between atoms: _58  and  _59
REMARK   28  A    between atoms: _62  and  _64
REMARK   29  A    between atoms: _64  and  _65
REMARK   30  A    between atoms: _64  and  _67
REMARK   31  A    between atoms: _67  and  _68
REMARK   32  A    between atoms: _68  and  _69
REMARK   33  A    between atoms: _69  and  _70
REMARK   34  A    between atoms: _79  and  _81
REMARK   35  A    between atoms: _81  and  _82
REMARK   36  A    between atoms: _81  and  _84
REMARK   37  A    between atoms: _84  and  _85
REMARK   38  A    between atoms: _87  and  _89
REMARK   39  A    between atoms: _89  and  _90
REMARK   40  A    between atoms: _89  and  _92
REMARK   41  A    between atoms: _92  and  _93
REMARK   42  A    between atoms: _98  and  _99
REMARK   43  A    between atoms: _101  and  _103
REMARK   44  A    between atoms: _103  and  _104
REMARK   45  A    between atoms: _103  and  _106
REMARK   46  A    between atoms: _106  and  _107
REMARK   47  A    between atoms: _110  and  _112
REMARK   48  A    between atoms: _112  and  _113
REMARK   49  A    between atoms: _112  and  _115
REMARK   50  A    between atoms: _115  and  _116
REMARK   51  A    between atoms: _119  and  _121
REMARK   52  A    between atoms: _121  and  _122
REMARK   53  A    between atoms: _121  and  _124
REMARK   54  A    between atoms: _124  and  _125
REMARK   55  A    between atoms: _130  and  _131
REMARK   56  A    between atoms: _133  and  _135
REMARK   57  A    between atoms: _135  and  _136
REMARK   58  A    between atoms: _135  and  _138
REMARK   59  A    between atoms: _138  and  _139
REMARK   60  A    between atoms: _144  and  _146
REMARK   61  A    between atoms: _146  and  _147
REMARK   62  A    between atoms: _146  and  _149
REMARK   63  A    between atoms: _149  and  _150
REMARK   64  A    between atoms: _150  and  _151
REMARK   65  A    between atoms: _151  and  _152
REMARK   66  A    between atoms: _152  and  _153
REMARK   67  A    between atoms: _157  and  _159
REMARK   68  A    between atoms: _159  and  _160
REMARK   69  A    between atoms: _159  and  _162
REMARK   70  A    between atoms: _162  and  _163
REMARK   71  A    between atoms: _168  and  _170
REMARK   72  A    between atoms: _170  and  _171
REMARK   73  A    between atoms: _170  and  _173
REMARK   74  A    between atoms: _173  and  _174
REMARK   75  A    between atoms: _179  and  _181
REMARK   76  A    between atoms: _181  and  _182
REMARK   77  A    between atoms: _181  and  _184
REMARK   78  A    between atoms: _184  and  _185
REMARK   79  A    between atoms: _185  and  _186
REMARK   80  A    between atoms: _191  and  _193
REMARK   81  A    between atoms: _193  and  _194
REMARK   82  A    between atoms: _193  and  _196
REMARK   83  A    between atoms: _196  and  _197
REMARK   84  A    between atoms: _200  and  _202
REMARK   85  A    between atoms: _202  and  _203
REMARK   86  A    between atoms: _202  and  _205
REMARK   87  A    between atoms: _205  and  _206
REMARK   88  A    between atoms: _206  and  _207
REMARK   89  A    between atoms: _210  and  _212
REMARK   90  A    between atoms: _212  and  _213
REMARK   91  A    between atoms: _212  and  _215
REMARK   92  A    between atoms: _215  and  _216
REMARK   93  A    between atoms: _219  and  _221
REMARK   94  A    between atoms: _221  and  _222
REMARK   95  A    between atoms: _221  and  _224
REMARK   96  A    between atoms: _224  and  _225
REMARK   97  A    between atoms: _230  and  _232
REMARK   98  A    between atoms: _232  and  _233
REMARK   99  A    between atoms: _236  and  _238
REMARK  100  A    between atoms: _238  and  _239
REMARK  101  A    between atoms: _238  and  _241
REMARK  102  A    between atoms: _241  and  _242
REMARK  103  A    between atoms: _247  and  _248
REMARK  104  A    between atoms: _250  and  _252
REMARK  105  A    between atoms: _252  and  _253
REMARK  106  A    between atoms: _256  and  _257
REMARK  107  A    between atoms: _262  and  _264
REMARK  108  A    between atoms: _264  and  _265
REMARK  109  A    between atoms: _264  and  _267
REMARK  110  A    between atoms: _267  and  _268
REMARK  111  A    between atoms: _271  and  _273
REMARK  112  A    between atoms: _273  and  _274
REMARK  113  A    between atoms: _276  and  _278
REMARK  114  A    between atoms: _278  and  _279
REMARK  115  A    between atoms: _278  and  _281
REMARK  116  A    between atoms: _284  and  _286
REMARK  117  A    between atoms: _286  and  _287
REMARK  118  A    between atoms: _289  and  _291
REMARK  119  A    between atoms: _291  and  _292
REMARK  120  A    between atoms: _291  and  _294
REMARK  121  A    between atoms: _294  and  _295
REMARK  122  A    between atoms: _295  and  _296
REMARK  123  A    between atoms: _296  and  _297
REMARK  124  A    between atoms: _306  and  _308
REMARK  125  A    between atoms: _308  and  _309
REMARK  126  A    between atoms: _308  and  _311
REMARK  127  A    between atoms: _311  and  _312
REMARK  128  A    between atoms: _315  and  _317
REMARK  129  A    between atoms: _317  and  _318
REMARK  130  A    between atoms: _317  and  _320
REMARK  131  A    between atoms: _320  and  _321
REMARK  132  A    between atoms: _324  and  _326
REMARK  133  A    between atoms: _326  and  _327
REMARK  134  A    between atoms: _326  and  _329
REMARK  135  A    between atoms: _329  and  _330
REMARK  136  A    between atoms: _333  and  _335
REMARK  137  A    between atoms: _335  and  _336
REMARK  138  A    between atoms: _339  and  _341
REMARK  139  A    between atoms: _341  and  _342
REMARK  140  A    between atoms: _345  and  _347
REMARK  141  A    between atoms: _347  and  _348
REMARK  142  A    between atoms: _347  and  _350
REMARK  143  A    between atoms: _350  and  _351
REMARK  144  A    between atoms: _351  and  _352
REMARK  145  A    between atoms: _357  and  _359
REMARK  146  A    between atoms: _359  and  _360
REMARK  147  A    between atoms: _359  and  _362
REMARK  148  A    between atoms: _362  and  _363
REMARK  149  A    between atoms: _366  and  _368
REMARK  150  A    between atoms: _368  and  _369
REMARK  151  A    between atoms: _368  and  _371
REMARK  152  A    between atoms: _371  and  _372
REMARK  153  A    between atoms: _375  and  _377
REMARK  154  A    between atoms: _377  and  _378
REMARK  155  A    between atoms: _377  and  _380
REMARK  156  A    between atoms: _383  and  _385
REMARK  157  A    between atoms: _385  and  _386
REMARK  158  A    between atoms: _385  and  _388
REMARK  159  A    between atoms: _388  and  _389
REMARK  160  A    between atoms: _392  and  _394
REMARK  161  A    between atoms: _394  and  _395
REMARK  162  A    between atoms: _394  and  _397
REMARK  163  A    between atoms: _397  and  _398
REMARK  164  A    between atoms: _400  and  _402
REMARK  165  A    between atoms: _402  and  _403
REMARK  166  A    between atoms: _402  and  _405
REMARK  167  A    between atoms: _405  and  _406
REMARK  168  A    between atoms: _406  and  _407
REMARK  169  A    between atoms: _407  and  _408
REMARK  170  A    between atoms: _417  and  _419
REMARK  171  A    between atoms: _419  and  _420
REMARK  172  A    between atoms: _419  and  _422
REMARK  173  A    between atoms: _422  and  _423
REMARK  174  A    between atoms: _425  and  _427
REMARK  175  A    between atoms: _427  and  _428
REMARK  176  A    between atoms: _431  and  _433
REMARK  177  A    between atoms: _433  and  _434
REMARK  178  A    between atoms: _433  and  _436
REMARK  179  A    between atoms: _436  and  _437
REMARK  180  A    between atoms: _443  and  _444
REMARK  181  A    between atoms: _449  and  _451
REMARK  182  A    between atoms: _451  and  _452
REMARK  183  A    between atoms: _451  and  _454
REMARK  184  A    between atoms: _454  and  _455
REMARK  185  A    between atoms: _455  and  _456
REMARK  186  A    between atoms: _459  and  _461
REMARK  187  A    between atoms: _461  and  _462
REMARK  188  A    between atoms: _461  and  _464
REMARK  189  A    between atoms: _464  and  _465
REMARK  190  A    between atoms: _465  and  _466
REMARK  191  A    between atoms: _466  and  _467
REMARK  192  A    between atoms: _476  and  _478
REMARK  193  A    between atoms: _478  and  _479
REMARK  194  A    between atoms: _478  and  _481
REMARK  195  A    between atoms: _481  and  _482
REMARK  196  A    between atoms: _485  and  _487
REMARK  197  A    between atoms: _487  and  _488
REMARK  198  A    between atoms: _491  and  _493
REMARK  199  A    between atoms: _493  and  _494
REMARK  200  A    between atoms: _493  and  _496
REMARK  201  A    between atoms: _496  and  _497
REMARK  202  A    between atoms: _499  and  _501
REMARK  203  A    between atoms: _501  and  _502
REMARK  204  A    between atoms: _501  and  _504
REMARK  205  A    between atoms: _504  and  _505
REMARK  206  A    between atoms: _510  and  _512
REMARK  207  A    between atoms: _512  and  _513
REMARK  208  A    between atoms: _512  and  _515
REMARK  209  A    between atoms: _515  and  _516
REMARK  210  A    between atoms: _519  and  _521
REMARK  211  A    between atoms: _521  and  _522
REMARK  212  A    between atoms: _521  and  _524
REMARK  213  A    between atoms: _524  and  _525
REMARK  214  A    between atoms: _528  and  _530
REMARK  215  A    between atoms: _530  and  _531
REMARK  216  A    between atoms: _530  and  _533
REMARK  217  A    between atoms: _533  and  _534
REMARK  218  A    between atoms: _540  and  _542
REMARK  219  A    between atoms: _542  and  _543
REMARK  220  A    between atoms: _542  and  _545
REMARK  221  A    between atoms: _545  and  _546
REMARK  222  A    between atoms: _546  and  _547
REMARK  223  A    between atoms: _547  and  _548
REMARK                            x       y       z     vdW  Elec       q    Type
REMARK                         _______ _______ _______ _____ _____    ______ ____
ROOT
ATOM      1  CA  GLU A   9      17.988  48.295 -14.678  0.00  0.00    +0.149 C 
ENDROOT
BRANCH   1   2
ATOM      2  C   GLU A   9      16.589  48.643 -14.176  0.00  0.00    +0.241 C 
ATOM      3  N   ARG A  10      16.001  47.763 -13.363  0.00  0.00    -0.297 N 
ATOM      4  H   ARG A  10      16.482  46.877 -13.108  0.00  0.00    +0.150 HD
ATOM      5  O   GLU A   9      16.052  49.704 -14.501  0.00  0.00    -0.273 OA
BRANCH   3   6
ATOM      6  CA  ARG A  10      14.672  48.063 -12.837  0.00  0.00    +0.149 C 
BRANCH   6   7
ATOM      7  C   ARG A  10      14.736  49.233 -11.858  0.00  0.00    +0.241 C 
ATOM      8  N   ILE A  11      15.837  49.328 -11.103  0.00  0.00    -0.297 N 
ATOM      9  H   ILE A  11      16.545  48.567 -11.139  0.00  0.00    +0.150 HD
ATOM     10  O   ARG A  10      13.835  50.082 -11.850  0.00  0.00    -0.273 OA
BRANCH   8  11
ATOM     11  CA  ILE A  11      16.067  50.486 -10.223  0.00  0.00    +0.149 C 
BRANCH  11  12
ATOM     12  C   ILE A  11      16.007  51.751 -11.070  0.00  0.00    +0.241 C 
ATOM     13  O   ILE A  11      15.276  52.683 -10.747  0.00  0.00    -0.273 OA
ATOM     14  N   ALA A  12      16.761  51.789 -12.178  0.00  0.00    -0.297 N 
ATOM     15  H   ALA A  12      17.380  50.987 -12.413  0.00  0.00    +0.150 HD
BRANCH  14  16
ATOM     16  CA  ALA A  12      16.714  52.952 -13.052  0.00  0.00    +0.149 C 
ATOM     17  CB  ALA A  12      17.754  52.811 -14.195  0.00  0.00    +0.031 C 
BRANCH  16  18
ATOM     18  C   ALA A  12      15.288  53.208 -13.610  0.00  0.00    +0.241 C 
ATOM     19  O   ALA A  12      14.856  54.361 -13.702  0.00  0.00    -0.273 OA
ATOM     20  N   SER A  13      14.549  52.138 -13.941  0.00  0.00    -0.295 N 
ATOM     21  H   SER A  13      14.936  51.184 -13.795  0.00  0.00    +0.150 HD
BRANCH  20  22
ATOM     22  CA  SER A  13      13.204  52.294 -14.506  0.00  0.00    +0.178 C 
BRANCH  22  23
ATOM     23  C   SER A  13      12.249  52.917 -13.470  0.00  0.00    +0.243 C 
ATOM     24  N   ASN A  14      12.514  52.653 -12.189  0.00  0.00    -0.297 N 
ATOM     25  H   ASN A  14      13.367  52.108 -11.951  0.00  0.00    +0.150 HD
ATOM     26  O   SER A  13      11.301  53.615 -13.828  0.00  0.00    -0.273 OA
BRANCH  24  27
ATOM     27  CA  ASN A  14      11.631  53.112 -11.103  0.00  0.00    +0.158 C 
BRANCH  27  28
ATOM     28  C   ASN A  14      11.767  54.603 -10.834  0.00  0.00    +0.241 C 
ATOM     29  O   ASN A  14      10.887  55.236 -10.222  0.00  0.00    -0.273 OA
ATOM     30  N   LEU A  15      12.893  55.158 -11.272  0.00  0.00    -0.297 N 
ATOM     31  H   LEU A  15      13.622  54.547 -11.694  0.00  0.00    +0.150 HD
BRANCH  30  32
ATOM     32  CA  LEU A  15      13.142  56.584 -11.183  0.00  0.00    +0.149 C 
BRANCH  32  33
ATOM     33  C   LEU A  15      12.471  57.316 -12.347  0.00  0.00    +0.241 C 
ATOM     34  O   LEU A  15      12.238  58.532 -12.272  0.00  0.00    -0.273 OA
ATOM     35  N   ASP A  16      12.164  56.564 -13.409  0.00  0.00    -0.298 N 
ATOM     36  H   ASP A  16      12.278  55.533 -13.340  0.00  0.00    +0.150 HD
BRANCH  35  37
ATOM     37  CA  ASP A  16      11.669  57.141 -14.677  0.00  0.00    +0.148 C 
BRANCH  37  38
ATOM     38  C   ASP A  16      10.140  57.277 -14.724  0.00  0.00    +0.227 C 
ATOM     39  O   ASP A  16       9.453  56.655 -15.550  0.00  0.00    -0.286 OA
ENDBRANCH  37  38
BRANCH  37  40
ATOM     40  CB  ASP A  16      12.177  56.335 -15.879  0.00  0.00    +0.142 C 
BRANCH  40  41
ATOM     41  CG  ASP A  16      11.977  57.062 -17.213  0.00  0.00    +0.367 C 
ATOM     42  OD2 ASP A  16      11.789  58.310 -17.252  0.00  0.00    -0.246 OA
ATOM     43  OD1 ASP A  16      12.009  56.342 -18.244  0.00  0.00    -0.246 OA
ENDBRANCH  40  41
ENDBRANCH  37  40
ENDBRANCH  35  37
ENDBRANCH  32  33
BRANCH  32  44
ATOM     44  CB  LEU A  15      14.656  56.827 -11.188  0.00  0.00    +0.029 C 
BRANCH  44  45
ATOM     45  CG  LEU A  15      15.189  58.198 -10.798  0.00  0.00    +0.002 C 
ATOM     46  CD2 LEU A  15      14.803  58.505  -9.347  0.00  0.00    +0.000 C 
ATOM     47  CD1 LEU A  15      16.685  58.249 -10.978  0.00  0.00    +0.000 C 
ENDBRANCH  44  45
ENDBRANCH  32  44
ENDBRANCH  30  32
ENDBRANCH  27  28
BRANCH  27  48
ATOM     48  CB  ASN A  14      11.887  52.291  -9.832  0.00  0.00    +0.114 C 
BRANCH  48  49
ATOM     49  CG  ASN A  14      11.353  50.845  -9.941  0.00  0.00    +0.222 C 
ATOM     50  ND2 ASN A  14      11.790  49.964  -9.023  0.00  0.00    -0.329 N 
ATOM     51 HD21 ASN A  14      12.474  50.263  -8.299  0.00  0.00    +0.145 HD
ATOM     52 HD22 ASN A  14      11.443  48.984  -9.037  0.00  0.00    +0.145 HD
ATOM     53  OD1 ASN A  14      10.541  50.538 -10.820  0.00  0.00    -0.275 OA
ENDBRANCH  48  49
ENDBRANCH  27  48
ENDBRANCH  24  27
ENDBRANCH  22  23
BRANCH  22  54
ATOM     54  CB  SER A  13      12.666  50.947 -15.033  0.00  0.00    +0.166 C 
BRANCH  54  55
ATOM     55  OG  SER A  13      12.137  50.123 -13.994  0.00  0.00    -0.380 OA
ATOM     56  H   SER A  13      12.849  49.929 -13.333  0.00  0.00    +0.211 HD
ENDBRANCH  54  55
ENDBRANCH  22  54
ENDBRANCH  20  22
ENDBRANCH  16  18
ENDBRANCH  14  16
ENDBRANCH  11  12
BRANCH  11  57
ATOM     57  CB  ILE A  11      17.424  50.396  -9.451  0.00  0.00    +0.027 C 
ATOM     58  CG2 ILE A  11      17.808  51.765  -8.886  0.00  0.00    +0.002 C 
BRANCH  57  59
ATOM     59  CG1 ILE A  11      17.360  49.351  -8.320  0.00  0.00    +0.002 C 
ATOM     60  CD1 ILE A  11      18.741  48.880  -7.848  0.00  0.00    +0.000 C 
ENDBRANCH  57  59
ENDBRANCH  11  57
ENDBRANCH   8  11
ENDBRANCH   6   7
BRANCH   6  61
ATOM     61  CB  ARG A  10      13.990  46.824 -12.264  0.00  0.00    +0.033 C 
BRANCH  61  62
ATOM     62  CG  ARG A  10      13.692  45.781 -13.357  0.00  0.00    +0.045 C 
BRANCH  62  63
ATOM     63  CD  ARG A  10      12.830  44.606 -12.874  0.00  0.00    +0.174 C 
BRANCH  63  64
ATOM     64  NE  ARG A  10      13.543  43.627 -12.031  0.00  0.00    -0.265 N 
ATOM     65  HE  ARG A  10      13.442  43.726 -11.001  0.00  0.00    +0.259 HD
ATOM     66  CZ  ARG A  10      14.308  42.623 -12.476  0.00  0.00    +0.342 C 
ATOM     67  NH2 ARG A  10      14.865  41.785 -11.596  0.00  0.00    -0.292 N 
ATOM     68 HH21 ARG A  10      14.702  41.917 -10.577  0.00  0.00    +0.255 HD
ATOM     69 HH22 ARG A  10      15.461  41.001 -11.930  0.00  0.00    +0.255 HD
ATOM     70  NH1 ARG A  10      14.534  42.441 -13.782  0.00  0.00    -0.292 N 
ATOM     71 HH11 ARG A  10      15.133  41.653 -14.101  0.00  0.00    +0.255 HD
ATOM     72 HH12 ARG A  10      14.111  43.088 -14.478  0.00  0.00    +0.255 HD
ENDBRANCH  63  64
ENDBRANCH  62  63
ENDBRANCH  61  62
ENDBRANCH   6  61
ENDBRANCH   3   6
ENDBRANCH   1   2
BRANCH   1  75
ATOM     73  C   PRO A   8      19.311  48.521 -12.634  0.00  0.00    +0.241 C 
ATOM     74  O   PRO A   8      19.080  49.739 -12.587  0.00  0.00    -0.273 OA
ATOM     75  N   GLU A   9      18.854  47.739 -13.617  0.00  0.00    -0.297 N 
ATOM     76  H   GLU A   9      19.110  46.731 -13.635  0.00  0.00    +0.150 HD
BRANCH  73  83
ATOM     77  C   ASN A   7      18.461  46.289 -10.697  0.00  0.00    +0.244 C 
ATOM     78  O   ASN A   7      17.590  47.155 -10.701  0.00  0.00    -0.273 OA
ATOM     79  N   PRO A   8      19.725  46.525 -11.098  0.00  0.00    -0.272 N 
ATOM     80  CD  PRO A   8      20.830  45.543 -11.095  0.00  0.00    +0.094 C 
ATOM     81  CG  PRO A   8      22.060  46.413 -11.197  0.00  0.00    +0.024 C 
ATOM     82  CB  PRO A   8      21.615  47.596 -12.033  0.00  0.00    +0.031 C 
ATOM     83  CA  PRO A   8      20.175  47.860 -11.537  0.00  0.00    +0.152 C 
BRANCH  77  84
ATOM     84  CA  ASN A   7      18.116  44.888 -10.213  0.00  0.00    +0.158 C 
BRANCH  84  87
ATOM     85  C   ALA A   6      18.311  44.509  -7.789  0.00  0.00    +0.241 C 
ATOM     86  O   ALA A   6      19.501  44.185  -7.872  0.00  0.00    -0.273 OA
ATOM     87  N   ASN A   7      17.602  44.928  -8.844  0.00  0.00    -0.297 N 
ATOM     88  H   ASN A   7      16.644  45.298  -8.683  0.00  0.00    +0.150 HD
BRANCH  85  89
ATOM     89  CA  ALA A   6      17.571  44.473  -6.448  0.00  0.00    +0.149 C 
ATOM     90  CB  ALA A   6      17.549  43.042  -5.859  0.00  0.00    +0.031 C 
BRANCH  89  93
ATOM     91  C   SER A   5      15.881  46.253  -6.338  0.00  0.00    +0.243 C 
ATOM     92  O   SER A   5      16.654  47.078  -5.864  0.00  0.00    -0.273 OA
ATOM     93  N   ALA A   6      16.202  44.985  -6.596  0.00  0.00    -0.297 N 
ATOM     94  H   ALA A   6      15.456  44.334  -6.914  0.00  0.00    +0.150 HD
BRANCH  91  95
ATOM     95  CA  SER A   5      14.439  46.641  -6.627  0.00  0.00    +0.178 C 
BRANCH  95  98
ATOM     96  C   ARG A   4      12.910  47.980  -5.275  0.00  0.00    +0.241 C 
ATOM     97  O   ARG A   4      11.896  47.448  -5.736  0.00  0.00    -0.273 OA
ATOM     98  N   SER A   5      14.132  47.760  -5.752  0.00  0.00    -0.295 N 
ATOM     99  H   SER A   5      14.897  48.414  -5.489  0.00  0.00    +0.150 HD
BRANCH  96 100
ATOM    100  CA  ARG A   4      12.849  48.940  -4.104  0.00  0.00    +0.149 C 
BRANCH 100 103
ATOM    101  C   SER A   3      11.742  51.045  -3.704  0.00  0.00    +0.243 C 
ATOM    102  O   SER A   3      12.740  51.498  -3.170  0.00  0.00    -0.273 OA
ATOM    103  N   ARG A   4      11.688  49.806  -4.176  0.00  0.00    -0.297 N 
ATOM    104  H   ARG A   4      10.807  49.453  -4.601  0.00  0.00    +0.150 HD
BRANCH 101 105
ATOM    105  CA  SER A   3      10.496  51.895  -3.885  0.00  0.00    +0.178 C 
BRANCH 105 108
ATOM    106  C   ILE A   2       9.806  53.475  -2.137  0.00  0.00    +0.241 C 
ATOM    107  O   ILE A   2       8.882  52.711  -1.750  0.00  0.00    -0.273 OA
ATOM    108  N   SER A   3      10.603  53.188  -3.172  0.00  0.00    -0.295 N 
ATOM    109  H   SER A   3      11.310  53.885  -3.481  0.00  0.00    +0.150 HD
BRANCH 106 110
ATOM    110  CA  ILE A   2      10.015  54.827  -1.453  0.00  0.00    +0.148 C 
BRANCH 110 112
ATOM    111  C   VAL A   1       8.863  56.683  -2.570  0.00  0.00    +0.238 C 
ATOM    112  N   ILE A   2       8.859  55.700  -1.665  0.00  0.00    -0.297 N 
ATOM    113  H   ILE A   2       8.005  55.550  -1.091  0.00  0.00    +0.150 HD
ATOM    114  O   VAL A   1       9.850  56.980  -3.261  0.00  0.00    -0.274 OA
BRANCH 111 115
ATOM    115  CA  VAL A   1       7.555  57.449  -2.729  0.00  0.00    +0.145 C 
BRANCH 115 116
ATOM    116  CB  VAL A   1       6.991  57.217  -4.155  0.00  0.00    +0.025 C 
ATOM    117  CG2 VAL A   1       5.694  57.977  -4.342  0.00  0.00    +0.002 C 
ATOM    118  CG1 VAL A   1       6.770  55.724  -4.378  0.00  0.00    +0.002 C 
ENDBRANCH 115 116
BRANCH 115 119
ATOM    119  N   VAL A   1       7.715  58.878  -2.418  0.00  0.00    -0.238 NA
ATOM    120  H   VAL A   1       8.319  59.466  -3.027  0.00  0.00    +0.142 HD
ENDBRANCH 115 119
ENDBRANCH 111 115
ENDBRANCH 110 112
BRANCH 110 121
ATOM    121  CB  ILE A   2      10.279  54.609   0.084  0.00  0.00    +0.027 C 
ATOM    122  CG2 ILE A   2      11.508  53.677   0.287  0.00  0.00    +0.002 C 
BRANCH 121 123
ATOM    123  CG1 ILE A   2      10.362  55.965   0.823  0.00  0.00    +0.002 C 
ATOM    124  CD1 ILE A   2      11.434  56.952   0.270  0.00  0.00    +0.000 C 
ENDBRANCH 121 123
ENDBRANCH 110 121
ENDBRANCH 106 110
ENDBRANCH 105 108
BRANCH 105 125
ATOM    125  CB  SER A   3      10.199  52.100  -5.379  0.00  0.00    +0.166 C 
BRANCH 125 126
ATOM    126  OG  SER A   3      11.249  52.824  -5.961  0.00  0.00    -0.380 OA
ATOM    127  H   SER A   3      12.094  52.320  -5.855  0.00  0.00    +0.211 HD
ENDBRANCH 125 126
ENDBRANCH 105 125
ENDBRANCH 101 105
ENDBRANCH 100 103
BRANCH 100 128
ATOM    128  CB  ARG A   4      12.847  48.162  -2.783  0.00  0.00    +0.033 C 
BRANCH 128 129
ATOM    129  CG  ARG A   4      14.092  47.270  -2.611  0.00  0.00    +0.045 C 
BRANCH 129 130
ATOM    130  CD  ARG A   4      14.068  46.527  -1.288  0.00  0.00    +0.174 C 
BRANCH 130 131
ATOM    131  NE  ARG A   4      12.940  45.591  -1.227  0.00  0.00    -0.265 N 
ATOM    132  CZ  ARG A   4      12.731  44.763  -0.204  0.00  0.00    +0.342 C 
ATOM    133  NH2 ARG A   4      13.578  44.766   0.847  0.00  0.00    -0.292 N 
ATOM    134 HH21 ARG A   4      13.417  44.121   1.647  0.00  0.00    +0.255 HD
ATOM    135 HH22 ARG A   4      14.392  45.414   0.857  0.00  0.00    +0.255 HD
ATOM    136  NH1 ARG A   4      11.677  43.947  -0.227  0.00  0.00    -0.292 N 
ATOM    137 HH11 ARG A   4      11.505  43.297   0.567  0.00  0.00    +0.255 HD
ATOM    138 HH12 ARG A   4      11.027  43.960  -1.038  0.00  0.00    +0.255 HD
ATOM    139  HE  ARG A   4      12.270  45.573  -2.022  0.00  0.00    +0.259 HD
ENDBRANCH 130 131
ENDBRANCH 129 130
ENDBRANCH 128 129
ENDBRANCH 100 128
ENDBRANCH  96 100
ENDBRANCH  95  98
BRANCH  95 140
ATOM    140  CB  SER A   5      14.276  47.025  -8.110  0.00  0.00    +0.166 C 
BRANCH 140 141
ATOM    141  OG  SER A   5      14.817  46.020  -8.951  0.00  0.00    -0.380 OA
ATOM    142  H   SER A   5      14.345  45.165  -8.788  0.00  0.00    +0.211 HD
ENDBRANCH 140 141
ENDBRANCH  95 140
ENDBRANCH  91  95
ENDBRANCH  89  93
ENDBRANCH  85  89
ENDBRANCH  84  87
BRANCH  84 143
ATOM    143  CB  ASN A   7      17.058  44.256 -11.134  0.00  0.00    +0.114 C 
BRANCH 143 144
ATOM    144  CG  ASN A   7      17.489  44.195 -12.604  0.00  0.00    +0.222 C 
ATOM    145  ND2 ASN A   7      17.873  43.006 -13.034  0.00  0.00    -0.329 N 
ATOM    146 HD21 ASN A   7      17.912  42.202 -12.375  0.00  0.00    +0.145 HD
ATOM    147 HD22 ASN A   7      18.136  42.874 -14.031  0.00  0.00    +0.145 HD
ATOM    148  OD1 ASN A   7      17.426  45.185 -13.351  0.00  0.00    -0.275 OA
ENDBRANCH 143 144
ENDBRANCH  84 143
ENDBRANCH  77  84
ENDBRANCH  73  83
ENDBRANCH   1  75
BRANCH   1 149
ATOM    149  CB  GLU A   9      17.902  47.337 -15.883  0.00  0.00    +0.041 C 
BRANCH 149 150
ATOM    150  CG  GLU A   9      19.124  47.433 -16.825  0.00  0.00    +0.116 C 
BRANCH 150 151
ATOM    151  CD  GLU A   9      19.300  48.825 -17.428  0.00  0.00    +0.365 C 
ATOM    152  OE2 GLU A   9      20.269  49.521 -17.030  0.00  0.00    -0.246 OA
ATOM    153  OE1 GLU A   9      18.466  49.242 -18.268  0.00  0.00    -0.246 OA
ENDBRANCH 150 151
ENDBRANCH 149 150
ENDBRANCH   1 149
TORSDOF 61
REMARK  Name = ../refined-set-2016/2wzm/2wzm_pocket.pdb
REMARK  223 active torsions:
REMARK  status: ('A' for Active; 'I' for Inactive)
REMARK    1  A    between atoms: _1  and  _3
REMARK    2  A    between atoms: _3  and  _4
REMARK    3  A    between atoms: _6  and  _8
REMARK    4  A    between atoms: _8  and  _9
REMARK    5  A    between atoms: _8  and  _11
REMARK    6  A    between atoms: _11  and  _12
REMARK    7  A    between atoms: _15  and  _17
REMARK    8  A    between atoms: _17  and  _18
REMARK    9  A    between atoms: _20  and  _22
REMARK   10  A    between atoms: _22  and  _23
REMARK   11  A    between atoms: _22  and  _25
REMARK   12  A    between atoms: _28  and  _30
REMARK   13  A    between atoms: _30  and  _31
REMARK   14  A    between atoms: _33  and  _35
REMARK   15  A    between atoms: _35  and  _36
REMARK   16  A    between atoms: _35  and  _38
REMARK   17  A    between atoms: _38  and  _39
REMARK   18  A    between atoms: _39  and  _40
REMARK   19  A    between atoms: _43  and  _45
REMARK   20  A    between atoms: _45  and  _46
REMARK   21  A    between atoms: _45  and  _48
REMARK   22  A    between atoms: _48  and  _49
REMARK   23  A    between atoms: _52  and  _54
REMARK   24  A    between atoms: _54  and  _55
REMARK   25  A    between atoms: _54  and  _57
REMARK   26  A    between atoms: _57  and  _58
REMARK   27  A    between atoms: _58  and  _59
REMARK   28  A    between atoms: _62  and  _64
REMARK   29  A    between atoms: _64  and  _65
REMARK   30  A    between atoms: _64  and  _67
REMARK   31  A    between atoms: _67  and  _68
REMARK   32  A    between atoms: _68  and  _69
REMARK   33  A    between atoms: _69  and  _70
REMARK   34  A    between atoms: _79  and  _81
REMARK   35  A    between atoms: _81  and  _82
REMARK   36  A    between atoms: _81  and  _84
REMARK   37  A    between atoms: _84  and  _85
REMARK   38  A    between atoms: _87  and  _89
REMARK   39  A    between atoms: _89  and  _90
REMARK   40  A    between atoms: _89  and  _92
REMARK   41  A    between atoms: _92  and  _93
REMARK   42  A    between atoms: _98  and  _99
REMARK   43  A    between atoms: _101  and  _103
REMARK   44  A    between atoms: _103  and  _104
REMARK   45  A    between atoms: _103  and  _106
REMARK   46  A    between atoms: _106  and  _107
REMARK   47  A    between atoms: _110  and  _112
REMARK   48  A    between atoms: _112  and  _113
REMARK   49  A    between atoms: _112  and  _115
REMARK   50  A    between atoms: _115  and  _116
REMARK   51  A    between atoms: _119  and  _121
REMARK   52  A    between atoms: _121  and  _122
REMARK   53  A    between atoms: _121  and  _124
REMARK   54  A    between atoms: _124  and  _125
REMARK   55  A    between atoms: _130  and  _131
REMARK   56  A    between atoms: _133  and  _135
REMARK   57  A    between atoms: _135  and  _136
REMARK   58  A    between atoms: _135  and  _138
REMARK   59  A    between atoms: _138  and  _139
REMARK   60  A    between atoms: _144  and  _146
REMARK   61  A    between atoms: _146  and  _147
REMARK   62  A    between atoms: _146  and  _149
REMARK   63  A    between atoms: _149  and  _150
REMARK   64  A    between atoms: _150  and  _151
REMARK   65  A    between atoms: _151  and  _152
REMARK   66  A    between atoms: _152  and  _153
REMARK   67  A    between atoms: _157  and  _159
REMARK   68  A    between atoms: _159  and  _160
REMARK   69  A    between atoms: _159  and  _162
REMARK   70  A    between atoms: _162  and  _163
REMARK   71  A    between atoms: _168  and  _170
REMARK   72  A    between atoms: _170  and  _171
REMARK   73  A    between atoms: _170  and  _173
REMARK   74  A    between atoms: _173  and  _174
REMARK   75  A    between atoms: _179  and  _181
REMARK   76  A    between atoms: _181  and  _182
REMARK   77  A    between atoms: _181  and  _184
REMARK   78  A    between atoms: _184  and  _185
REMARK   79  A    between atoms: _185  and  _186
REMARK   80  A    between atoms: _191  and  _193
REMARK   81  A    between atoms: _193  and  _194
REMARK   82  A    between atoms: _193  and  _196
REMARK   83  A    between atoms: _196  and  _197
REMARK   84  A    between atoms: _200  and  _202
REMARK   85  A    between atoms: _202  and  _203
REMARK   86  A    between atoms: _202  and  _205
REMARK   87  A    between atoms: _205  and  _206
REMARK   88  A    between atoms: _206  and  _207
REMARK   89  A    between atoms: _210  and  _212
REMARK   90  A    between atoms: _212  and  _213
REMARK   91  A    between atoms: _212  and  _215
REMARK   92  A    between atoms: _215  and  _216
REMARK   93  A    between atoms: _219  and  _221
REMARK   94  A    between atoms: _221  and  _222
REMARK   95  A    between atoms: _221  and  _224
REMARK   96  A    between atoms: _224  and  _225
REMARK   97  A    between atoms: _230  and  _232
REMARK   98  A    between atoms: _232  and  _233
REMARK   99  A    between atoms: _236  and  _238
REMARK  100  A    between atoms: _238  and  _239
REMARK  101  A    between atoms: _238  and  _241
REMARK  102  A    between atoms: _241  and  _242
REMARK  103  A    between atoms: _247  and  _248
REMARK  104  A    between atoms: _250  and  _252
REMARK  105  A    between atoms: _252  and  _253
REMARK  106  A    between atoms: _256  and  _257
REMARK  107  A    between atoms: _262  and  _264
REMARK  108  A    between atoms: _264  and  _265
REMARK  109  A    between atoms: _264  and  _267
REMARK  110  A    between atoms: _267  and  _268
REMARK  111  A    between atoms: _271  and  _273
REMARK  112  A    between atoms: _273  and  _274
REMARK  113  A    between atoms: _276  and  _278
REMARK  114  A    between atoms: _278  and  _279
REMARK  115  A    between atoms: _278  and  _281
REMARK  116  A    between atoms: _284  and  _286
REMARK  117  A    between atoms: _286  and  _287
REMARK  118  A    between atoms: _289  and  _291
REMARK  119  A    between atoms: _291  and  _292
REMARK  120  A    between atoms: _291  and  _294
REMARK  121  A    between atoms: _294  and  _295
REMARK  122  A    between atoms: _295  and  _296
REMARK  123  A    between atoms: _296  and  _297
REMARK  124  A    between atoms: _306  and  _308
REMARK  125  A    between atoms: _308  and  _309
REMARK  126  A    between atoms: _308  and  _311
REMARK  127  A    between atoms: _311  and  _312
REMARK  128  A    between atoms: _315  and  _317
REMARK  129  A    between atoms: _317  and  _318
REMARK  130  A    between atoms: _317  and  _320
REMARK  131  A    between atoms: _320  and  _321
REMARK  132  A    between atoms: _324  and  _326
REMARK  133  A    between atoms: _326  and  _327
REMARK  134  A    between atoms: _326  and  _329
REMARK  135  A    between atoms: _329  and  _330
REMARK  136  A    between atoms: _333  and  _335
REMARK  137  A    between atoms: _335  and  _336
REMARK  138  A    between atoms: _339  and  _341
REMARK  139  A    between atoms: _341  and  _342
REMARK  140  A    between atoms: _345  and  _347
REMARK  141  A    between atoms: _347  and  _348
REMARK  142  A    between atoms: _347  and  _350
REMARK  143  A    between atoms: _350  and  _351
REMARK  144  A    between atoms: _351  and  _352
REMARK  145  A    between atoms: _357  and  _359
REMARK  146  A    between atoms: _359  and  _360
REMARK  147  A    between atoms: _359  and  _362
REMARK  148  A    between atoms: _362  and  _363
REMARK  149  A    between atoms: _366  and  _368
REMARK  150  A    between atoms: _368  and  _369
REMARK  151  A    between atoms: _368  and  _371
REMARK  152  A    between atoms: _371  and  _372
REMARK  153  A    between atoms: _375  and  _377
REMARK  154  A    between atoms: _377  and  _378
REMARK  155  A    between atoms: _377  and  _380
REMARK  156  A    between atoms: _383  and  _385
REMARK  157  A    between atoms: _385  and  _386
REMARK  158  A    between atoms: _385  and  _388
REMARK  159  A    between atoms: _388  and  _389
REMARK  160  A    between atoms: _392  and  _394
REMARK  161  A    between atoms: _394  and  _395
REMARK  162  A    between atoms: _394  and  _397
REMARK  163  A    between atoms: _397  and  _398
REMARK  164  A    between atoms: _400  and  _402
REMARK  165  A    between atoms: _402  and  _403
REMARK  166  A    between atoms: _402  and  _405
REMARK  167  A    between atoms: _405  and  _406
REMARK  168  A    between atoms: _406  and  _407
REMARK  169  A    between atoms: _407  and  _408
REMARK  170  A    between atoms: _417  and  _419
REMARK  171  A    between atoms: _419  and  _420
REMARK  172  A    between atoms: _419  and  _422
REMARK  173  A    between atoms: _422  and  _423
REMARK  174  A    between atoms: _425  and  _427
REMARK  175  A    between atoms: _427  and  _428
REMARK  176  A    between atoms: _431  and  _433
REMARK  177  A    between atoms: _433  and  _434
REMARK  178  A    between atoms: _433  and  _436
REMARK  179  A    between atoms: _436  and  _437
REMARK  180  A    between atoms: _443  and  _444
REMARK  181  A    between atoms: _449  and  _451
REMARK  182  A    between atoms: _451  and  _452
REMARK  183  A    between atoms: _451  and  _454
REMARK  184  A    between atoms: _454  and  _455
REMARK  185  A    between atoms: _455  and  _456
REMARK  186  A    between atoms: _459  and  _461
REMARK  187  A    between atoms: _461  and  _462
REMARK  188  A    between atoms: _461  and  _464
REMARK  189  A    between atoms: _464  and  _465
REMARK  190  A    between atoms: _465  and  _466
REMARK  191  A    between atoms: _466  and  _467
REMARK  192  A    between atoms: _476  and  _478
REMARK  193  A    between atoms: _478  and  _479
REMARK  194  A    between atoms: _478  and  _481
REMARK  195  A    between atoms: _481  and  _482
REMARK  196  A    between atoms: _485  and  _487
REMARK  197  A    between atoms: _487  and  _488
REMARK  198  A    between atoms: _491  and  _493
REMARK  199  A    between atoms: _493  and  _494
REMARK  200  A    between atoms: _493  and  _496
REMARK  201  A    between atoms: _496  and  _497
REMARK  202  A    between atoms: _499  and  _501
REMARK  203  A    between atoms: _501  and  _502
REMARK  204  A    between atoms: _501  and  _504
REMARK  205  A    between atoms: _504  and  _505
REMARK  206  A    between atoms: _510  and  _512
REMARK  207  A    between atoms: _512  and  _513
REMARK  208  A    between atoms: _512  and  _515
REMARK  209  A    between atoms: _515  and  _516
REMARK  210  A    between atoms: _519  and  _521
REMARK  211  A    between atoms: _521  and  _522
REMARK  212  A    between atoms: _521  and  _524
REMARK  213  A    between atoms: _524  and  _525
REMARK  214  A    between atoms: _528  and  _530
REMARK  215  A    between atoms: _530  and  _531
REMARK  216  A    between atoms: _530  and  _533
REMARK  217  A    between atoms: _533  and  _534
REMARK  218  A    between atoms: _540  and  _542
REMARK  219  A    between atoms: _542  and  _543
REMARK  220  A    between atoms: _542  and  _545
REMARK  221  A    between atoms: _545  and  _546
REMARK  222  A    between atoms: _546  and  _547
REMARK  223  A    between atoms: _547  and  _548
REMARK                            x       y       z     vdW  Elec       q    Type
REMARK                         _______ _______ _______ _____ _____    ______ ____
ROOT
ATOM      1  CA  ARG A   2       3.576  44.683   5.945  0.00  0.00    +0.137 C 
ENDROOT
BRANCH   1   3
ATOM      2  C   PHE A   1       2.682  43.344   4.109  0.00  0.00    +0.239 C 
ATOM      3  N   ARG A   2       2.675  44.460   4.822  0.00  0.00    -0.298 N 
ATOM      4  H   ARG A   2       1.998  45.208   4.570  0.00  0.00    +0.150 HD
ATOM      5  O   PHE A   1       3.520  42.459   4.263  0.00  0.00    -0.274 OA
BRANCH   2   6
ATOM      6  CA  PHE A   1       1.601  43.217   3.042  0.00  0.00    +0.149 C 
BRANCH   6   7
ATOM      7  N   PHE A   1       0.540  44.204   3.227  0.00  0.00    -0.238 NA
ATOM      8  H   PHE A   1       0.612  45.126   2.750  0.00  0.00    +0.142 HD
ENDBRANCH   6   7
BRANCH   6   9
ATOM      9  CB  PHE A   1       2.209  43.313   1.639  0.00  0.00    +0.053 C 
BRANCH   9  10
ATOM     10  CG  PHE A   1       1.195  43.223   0.541  0.00  0.00    -0.020 A 
ATOM     11  CD2 PHE A   1       0.632  42.006   0.188  0.00  0.00    -0.004 A 
ATOM     12  CE2 PHE A   1      -0.325  41.937  -0.822  0.00  0.00    -0.000 A 
ATOM     13  CZ  PHE A   1      -0.725  43.090  -1.485  0.00  0.00    -0.000 A 
ATOM     14  CE1 PHE A   1      -0.166  44.308  -1.133  0.00  0.00    -0.000 A 
ATOM     15  CD1 PHE A   1       0.770  44.366  -0.119  0.00  0.00    -0.004 A 
ENDBRANCH   9  10
ENDBRANCH   6   9
ENDBRANCH   2   6
ENDBRANCH   1   3
BRANCH   1  16
ATOM     16  C   ARG A   2       2.750  44.667   7.252  0.00  0.00    +0.227 C 
ATOM     17  O   ARG A   2       1.520  44.640   7.203  0.00  0.00    -0.286 OA
ENDBRANCH   1  16
BRANCH   1  18
ATOM     18  CB  ARG A   2       4.369  45.990   5.733  0.00  0.00    +0.031 C 
BRANCH  18  19
ATOM     19  CG  ARG A   2       5.708  45.800   4.979  0.00  0.00    +0.045 C 
BRANCH  19  20
ATOM     20  CD  ARG A   2       5.557  45.705   3.436  0.00  0.00    +0.174 C 
BRANCH  20  21
ATOM     21  NE  ARG A   2       6.794  45.266   2.762  0.00  0.00    -0.265 N 
ATOM     22  HE  ARG A   2       7.549  44.869   3.357  0.00  0.00    +0.259 HD
ATOM     23  CZ  ARG A   2       7.019  45.339   1.446  0.00  0.00    +0.342 C 
ATOM     24  NH2 ARG A   2       8.170  44.903   0.941  0.00  0.00    -0.292 N 
ATOM     25 HH21 ARG A   2       8.896  44.505   1.570  0.00  0.00    +0.255 HD
ATOM     26 HH22 ARG A   2       8.344  44.960  -0.083  0.00  0.00    +0.255 HD
ATOM     27  NH1 ARG A   2       6.104  45.843   0.622  0.00  0.00    -0.292 N 
ATOM     28 HH11 ARG A   2       5.198  46.187   0.999  0.00  0.00    +0.255 HD
ATOM     29 HH12 ARG A   2       6.295  45.893  -0.399  0.00  0.00    +0.255 HD
ENDBRANCH  20  21
ENDBRANCH  19  20
ENDBRANCH  18  19
ENDBRANCH   1  18
TORSDOF 10
REMARK  Name = ../refined-set-2016/2wzm/2wzm_pocket.pdb
REMARK  223 active torsions:
REMARK  status: ('A' for Active; 'I' for Inactive)
REMARK    1  A    between atoms: _1  and  _3
REMARK    2  A    between atoms: _3  and  _4
REMARK    3  A    between atoms: _6  and  _8
REMARK    4  A    between atoms: _8  and  _9
REMARK    5  A    between atoms: _8  and  _11
REMARK    6  A    between atoms: _11  and  _12
REMARK    7  A    between atoms: _15  and  _17
REMARK    8  A    between atoms: _17  and  _18
REMARK    9  A    between atoms: _20  and  _22
REMARK   10  A    between atoms: _22  and  _23
REMARK   11  A    between atoms: _22  and  _25
REMARK   12  A    between atoms: _28  and  _30
REMARK   13  A    between atoms: _30  and  _31
REMARK   14  A    between atoms: _33  and  _35
REMARK   15  A    between atoms: _35  and  _36
REMARK   16  A    between atoms: _35  and  _38
REMARK   17  A    between atoms: _38  and  _39
REMARK   18  A    between atoms: _39  and  _40
REMARK   19  A    between atoms: _43  and  _45
REMARK   20  A    between atoms: _45  and  _46
REMARK   21  A    between atoms: _45  and  _48
REMARK   22  A    between atoms: _48  and  _49
REMARK   23  A    between atoms: _52  and  _54
REMARK   24  A    between atoms: _54  and  _55
REMARK   25  A    between atoms: _54  and  _57
REMARK   26  A    between atoms: _57  and  _58
REMARK   27  A    between atoms: _58  and  _59
REMARK   28  A    between atoms: _62  and  _64
REMARK   29  A    between atoms: _64  and  _65
REMARK   30  A    between atoms: _64  and  _67
REMARK   31  A    between atoms: _67  and  _68
REMARK   32  A    between atoms: _68  and  _69
REMARK   33  A    between atoms: _69  and  _70
REMARK   34  A    between atoms: _79  and  _81
REMARK   35  A    between atoms: _81  and  _82
REMARK   36  A    between atoms: _81  and  _84
REMARK   37  A    between atoms: _84  and  _85
REMARK   38  A    between atoms: _87  and  _89
REMARK   39  A    between atoms: _89  and  _90
REMARK   40  A    between atoms: _89  and  _92
REMARK   41  A    between atoms: _92  and  _93
REMARK   42  A    between atoms: _98  and  _99
REMARK   43  A    between atoms: _101  and  _103
REMARK   44  A    between atoms: _103  and  _104
REMARK   45  A    between atoms: _103  and  _106
REMARK   46  A    between atoms: _106  and  _107
REMARK   47  A    between atoms: _110  and  _112
REMARK   48  A    between atoms: _112  and  _113
REMARK   49  A    between atoms: _112  and  _115
REMARK   50  A    between atoms: _115  and  _116
REMARK   51  A    between atoms: _119  and  _121
REMARK   52  A    between atoms: _121  and  _122
REMARK   53  A    between atoms: _121  and  _124
REMARK   54  A    between atoms: _124  and  _125
REMARK   55  A    between atoms: _130  and  _131
REMARK   56  A    between atoms: _133  and  _135
REMARK   57  A    between atoms: _135  and  _136
REMARK   58  A    between atoms: _135  and  _138
REMARK   59  A    between atoms: _138  and  _139
REMARK   60  A    between atoms: _144  and  _146
REMARK   61  A    between atoms: _146  and  _147
REMARK   62  A    between atoms: _146  and  _149
REMARK   63  A    between atoms: _149  and  _150
REMARK   64  A    between atoms: _150  and  _151
REMARK   65  A    between atoms: _151  and  _152
REMARK   66  A    between atoms: _152  and  _153
REMARK   67  A    between atoms: _157  and  _159
REMARK   68  A    between atoms: _159  and  _160
REMARK   69  A    between atoms: _159  and  _162
REMARK   70  A    between atoms: _162  and  _163
REMARK   71  A    between atoms: _168  and  _170
REMARK   72  A    between atoms: _170  and  _171
REMARK   73  A    between atoms: _170  and  _173
REMARK   74  A    between atoms: _173  and  _174
REMARK   75  A    between atoms: _179  and  _181
REMARK   76  A    between atoms: _181  and  _182
REMARK   77  A    between atoms: _181  and  _184
REMARK   78  A    between atoms: _184  and  _185
REMARK   79  A    between atoms: _185  and  _186
REMARK   80  A    between atoms: _191  and  _193
REMARK   81  A    between atoms: _193  and  _194
REMARK   82  A    between atoms: _193  and  _196
REMARK   83  A    between atoms: _196  and  _197
REMARK   84  A    between atoms: _200  and  _202
REMARK   85  A    between atoms: _202  and  _203
REMARK   86  A    between atoms: _202  and  _205
REMARK   87  A    between atoms: _205  and  _206
REMARK   88  A    between atoms: _206  and  _207
REMARK   89  A    between atoms: _210  and  _212
REMARK   90  A    between atoms: _212  and  _213
REMARK   91  A    between atoms: _212  and  _215
REMARK   92  A    between atoms: _215  and  _216
REMARK   93  A    between atoms: _219  and  _221
REMARK   94  A    between atoms: _221  and  _222
REMARK   95  A    between atoms: _221  and  _224
REMARK   96  A    between atoms: _224  and  _225
REMARK   97  A    between atoms: _230  and  _232
REMARK   98  A    between atoms: _232  and  _233
REMARK   99  A    between atoms: _236  and  _238
REMARK  100  A    between atoms: _238  and  _239
REMARK  101  A    between atoms: _238  and  _241
REMARK  102  A    between atoms: _241  and  _242
REMARK  103  A    between atoms: _247  and  _248
REMARK  104  A    between atoms: _250  and  _252
REMARK  105  A    between atoms: _252  and  _253
REMARK  106  A    between atoms: _256  and  _257
REMARK  107  A    between atoms: _262  and  _264
REMARK  108  A    between atoms: _264  and  _265
REMARK  109  A    between atoms: _264  and  _267
REMARK  110  A    between atoms: _267  and  _268
REMARK  111  A    between atoms: _271  and  _273
REMARK  112  A    between atoms: _273  and  _274
REMARK  113  A    between atoms: _276  and  _278
REMARK  114  A    between atoms: _278  and  _279
REMARK  115  A    between atoms: _278  and  _281
REMARK  116  A    between atoms: _284  and  _286
REMARK  117  A    between atoms: _286  and  _287
REMARK  118  A    between atoms: _289  and  _291
REMARK  119  A    between atoms: _291  and  _292
REMARK  120  A    between atoms: _291  and  _294
REMARK  121  A    between atoms: _294  and  _295
REMARK  122  A    between atoms: _295  and  _296
REMARK  123  A    between atoms: _296  and  _297
REMARK  124  A    between atoms: _306  and  _308
REMARK  125  A    between atoms: _308  and  _309
REMARK  126  A    between atoms: _308  and  _311
REMARK  127  A    between atoms: _311  and  _312
REMARK  128  A    between atoms: _315  and  _317
REMARK  129  A    between atoms: _317  and  _318
REMARK  130  A    between atoms: _317  and  _320
REMARK  131  A    between atoms: _320  and  _321
REMARK  132  A    between atoms: _324  and  _326
REMARK  133  A    between atoms: _326  and  _327
REMARK  134  A    between atoms: _326  and  _329
REMARK  135  A    between atoms: _329  and  _330
REMARK  136  A    between atoms: _333  and  _335
REMARK  137  A    between atoms: _335  and  _336
REMARK  138  A    between atoms: _339  and  _341
REMARK  139  A    between atoms: _341  and  _342
REMARK  140  A    between atoms: _345  and  _347
REMARK  141  A    between atoms: _347  and  _348
REMARK  142  A    between atoms: _347  and  _350
REMARK  143  A    between atoms: _350  and  _351
REMARK  144  A    between atoms: _351  and  _352
REMARK  145  A    between atoms: _357  and  _359
REMARK  146  A    between atoms: _359  and  _360
REMARK  147  A    between atoms: _359  and  _362
REMARK  148  A    between atoms: _362  and  _363
REMARK  149  A    between atoms: _366  and  _368
REMARK  150  A    between atoms: _368  and  _369
REMARK  151  A    between atoms: _368  and  _371
REMARK  152  A    between atoms: _371  and  _372
REMARK  153  A    between atoms: _375  and  _377
REMARK  154  A    between atoms: _377  and  _378
REMARK  155  A    between atoms: _377  and  _380
REMARK  156  A    between atoms: _383  and  _385
REMARK  157  A    between atoms: _385  and  _386
REMARK  158  A    between atoms: _385  and  _388
REMARK  159  A    between atoms: _388  and  _389
REMARK  160  A    between atoms: _392  and  _394
REMARK  161  A    between atoms: _394  and  _395
REMARK  162  A    between atoms: _394  and  _397
REMARK  163  A    between atoms: _397  and  _398
REMARK  164  A    between atoms: _400  and  _402
REMARK  165  A    between atoms: _402  and  _403
REMARK  166  A    between atoms: _402  and  _405
REMARK  167  A    between atoms: _405  and  _406
REMARK  168  A    between atoms: _406  and  _407
REMARK  169  A    between atoms: _407  and  _408
REMARK  170  A    between atoms: _417  and  _419
REMARK  171  A    between atoms: _419  and  _420
REMARK  172  A    between atoms: _419  and  _422
REMARK  173  A    between atoms: _422  and  _423
REMARK  174  A    between atoms: _425  and  _427
REMARK  175  A    between atoms: _427  and  _428
REMARK  176  A    between atoms: _431  and  _433
REMARK  177  A    between atoms: _433  and  _434
REMARK  178  A    between atoms: _433  and  _436
REMARK  179  A    between atoms: _436  and  _437
REMARK  180  A    between atoms: _443  and  _444
REMARK  181  A    between atoms: _449  and  _451
REMARK  182  A    between atoms: _451  and  _452
REMARK  183  A    between atoms: _451  and  _454
REMARK  184  A    between atoms: _454  and  _455
REMARK  185  A    between atoms: _455  and  _456
REMARK  186  A    between atoms: _459  and  _461
REMARK  187  A    between atoms: _461  and  _462
REMARK  188  A    between atoms: _461  and  _464
REMARK  189  A    between atoms: _464  and  _465
REMARK  190  A    between atoms: _465  and  _466
REMARK  191  A    between atoms: _466  and  _467
REMARK  192  A    between atoms: _476  and  _478
REMARK  193  A    between atoms: _478  and  _479
REMARK  194  A    between atoms: _478  and  _481
REMARK  195  A    between atoms: _481  and  _482
REMARK  196  A    between atoms: _485  and  _487
REMARK  197  A    between atoms: _487  and  _488
REMARK  198  A    between atoms: _491  and  _493
REMARK  199  A    between atoms: _493  and  _494
REMARK  200  A    between atoms: _493  and  _496
REMARK  201  A    between atoms: _496  and  _497
REMARK  202  A    between atoms: _499  and  _501
REMARK  203  A    between atoms: _501  and  _502
REMARK  204  A    between atoms: _501  and  _504
REMARK  205  A    between atoms: _504  and  _505
REMARK  206  A    between atoms: _510  and  _512
REMARK  207  A    between atoms: _512  and  _513
REMARK  208  A    between atoms: _512  and  _515
REMARK  209  A    between atoms: _515  and  _516
REMARK  210  A    between atoms: _519  and  _521
REMARK  211  A    between atoms: _521  and  _522
REMARK  212  A    between atoms: _521  and  _524
REMARK  213  A    between atoms: _524  and  _525
REMARK  214  A    between atoms: _528  and  _530
REMARK  215  A    between atoms: _530  and  _531
REMARK  216  A    between atoms: _530  and  _533
REMARK  217  A    between atoms: _533  and  _534
REMARK  218  A    between atoms: _540  and  _542
REMARK  219  A    between atoms: _542  and  _543
REMARK  220  A    between atoms: _542  and  _545
REMARK  221  A    between atoms: _545  and  _546
REMARK  222  A    between atoms: _546  and  _547
REMARK  223  A    between atoms: _547  and  _548
REMARK                            x       y       z     vdW  Elec       q    Type
REMARK                         _______ _______ _______ _____ _____    ______ ____
ROOT
ATOM      1  O   HOH     1      16.120  40.685  -3.431  0.00  0.00    +0.000 OA
ENDROOT
TORSDOF 0
REMARK  Name = ../refined-set-2016/2wzm/2wzm_pocket.pdb
REMARK  223 active torsions:
REMARK  status: ('A' for Active; 'I' for Inactive)
REMARK    1  A    between atoms: _1  and  _3
REMARK    2  A    between atoms: _3  and  _4
REMARK    3  A    between atoms: _6  and  _8
REMARK    4  A    between atoms: _8  and  _9
REMARK    5  A    between atoms: _8  and  _11
REMARK    6  A    between atoms: _11  and  _12
REMARK    7  A    between atoms: _15  and  _17
REMARK    8  A    between atoms: _17  and  _18
REMARK    9  A    between atoms: _20  and  _22
REMARK   10  A    between atoms: _22  and  _23
REMARK   11  A    between atoms: _22  and  _25
REMARK   12  A    between atoms: _28  and  _30
REMARK   13  A    between atoms: _30  and  _31
REMARK   14  A    between atoms: _33  and  _35
REMARK   15  A    between atoms: _35  and  _36
REMARK   16  A    between atoms: _35  and  _38
REMARK   17  A    between atoms: _38  and  _39
REMARK   18  A    between atoms: _39  and  _40
REMARK   19  A    between atoms: _43  and  _45
REMARK   20  A    between atoms: _45  and  _46
REMARK   21  A    between atoms: _45  and  _48
REMARK   22  A    between atoms: _48  and  _49
REMARK   23  A    between atoms: _52  and  _54
REMARK   24  A    between atoms: _54  and  _55
REMARK   25  A    between atoms: _54  and  _57
REMARK   26  A    between atoms: _57  and  _58
REMARK   27  A    between atoms: _58  and  _59
REMARK   28  A    between atoms: _62  and  _64
REMARK   29  A    between atoms: _64  and  _65
REMARK   30  A    between atoms: _64  and  _67
REMARK   31  A    between atoms: _67  and  _68
REMARK   32  A    between atoms: _68  and  _69
REMARK   33  A    between atoms: _69  and  _70
REMARK   34  A    between atoms: _79  and  _81
REMARK   35  A    between atoms: _81  and  _82
REMARK   36  A    between atoms: _81  and  _84
REMARK   37  A    between atoms: _84  and  _85
REMARK   38  A    between atoms: _87  and  _89
REMARK   39  A    between atoms: _89  and  _90
REMARK   40  A    between atoms: _89  and  _92
REMARK   41  A    between atoms: _92  and  _93
REMARK   42  A    between atoms: _98  and  _99
REMARK   43  A    between atoms: _101  and  _103
REMARK   44  A    between atoms: _103  and  _104
REMARK   45  A    between atoms: _103  and  _106
REMARK   46  A    between atoms: _106  and  _107
REMARK   47  A    between atoms: _110  and  _112
REMARK   48  A    between atoms: _112  and  _113
REMARK   49  A    between atoms: _112  and  _115
REMARK   50  A    between atoms: _115  and  _116
REMARK   51  A    between atoms: _119  and  _121
REMARK   52  A    between atoms: _121  and  _122
REMARK   53  A    between atoms: _121  and  _124
REMARK   54  A    between atoms: _124  and  _125
REMARK   55  A    between atoms: _130  and  _131
REMARK   56  A    between atoms: _133  and  _135
REMARK   57  A    between atoms: _135  and  _136
REMARK   58  A    between atoms: _135  and  _138
REMARK   59  A    between atoms: _138  and  _139
REMARK   60  A    between atoms: _144  and  _146
REMARK   61  A    between atoms: _146  and  _147
REMARK   62  A    between atoms: _146  and  _149
REMARK   63  A    between atoms: _149  and  _150
REMARK   64  A    between atoms: _150  and  _151
REMARK   65  A    between atoms: _151  and  _152
REMARK   66  A    between atoms: _152  and  _153
REMARK   67  A    between atoms: _157  and  _159
REMARK   68  A    between atoms: _159  and  _160
REMARK   69  A    between atoms: _159  and  _162
REMARK   70  A    between atoms: _162  and  _163
REMARK   71  A    between atoms: _168  and  _170
REMARK   72  A    between atoms: _170  and  _171
REMARK   73  A    between atoms: _170  and  _173
REMARK   74  A    between atoms: _173  and  _174
REMARK   75  A    between atoms: _179  and  _181
REMARK   76  A    between atoms: _181  and  _182
REMARK   77  A    between atoms: _181  and  _184
REMARK   78  A    between atoms: _184  and  _185
REMARK   79  A    between atoms: _185  and  _186
REMARK   80  A    between atoms: _191  and  _193
REMARK   81  A    between atoms: _193  and  _194
REMARK   82  A    between atoms: _193  and  _196
REMARK   83  A    between atoms: _196  and  _197
REMARK   84  A    between atoms: _200  and  _202
REMARK   85  A    between atoms: _202  and  _203
REMARK   86  A    between atoms: _202  and  _205
REMARK   87  A    between atoms: _205  and  _206
REMARK   88  A    between atoms: _206  and  _207
REMARK   89  A    between atoms: _210  and  _212
REMARK   90  A    between atoms: _212  and  _213
REMARK   91  A    between atoms: _212  and  _215
REMARK   92  A    between atoms: _215  and  _216
REMARK   93  A    between atoms: _219  and  _221
REMARK   94  A    between atoms: _221  and  _222
REMARK   95  A    between atoms: _221  and  _224
REMARK   96  A    between atoms: _224  and  _225
REMARK   97  A    between atoms: _230  and  _232
REMARK   98  A    between atoms: _232  and  _233
REMARK   99  A    between atoms: _236  and  _238
REMARK  100  A    between atoms: _238  and  _239
REMARK  101  A    between atoms: _238  and  _241
REMARK  102  A    between atoms: _241  and  _242
REMARK  103  A    between atoms: _247  and  _248
REMARK  104  A    between atoms: _250  and  _252
REMARK  105  A    between atoms: _252  and  _253
REMARK  106  A    between atoms: _256  and  _257
REMARK  107  A    between atoms: _262  and  _264
REMARK  108  A    between atoms: _264  and  _265
REMARK  109  A    between atoms: _264  and  _267
REMARK  110  A    between atoms: _267  and  _268
REMARK  111  A    between atoms: _271  and  _273
REMARK  112  A    between atoms: _273  and  _274
REMARK  113  A    between atoms: _276  and  _278
REMARK  114  A    between atoms: _278  and  _279
REMARK  115  A    between atoms: _278  and  _281
REMARK  116  A    between atoms: _284  and  _286
REMARK  117  A    between atoms: _286  and  _287
REMARK  118  A    between atoms: _289  and  _291
REMARK  119  A    between atoms: _291  and  _292
REMARK  120  A    between atoms: _291  and  _294
REMARK  121  A    between atoms: _294  and  _295
REMARK  122  A    between atoms: _295  and  _296
REMARK  123  A    between atoms: _296  and  _297
REMARK  124  A    between atoms: _306  and  _308
REMARK  125  A    between atoms: _308  and  _309
REMARK  126  A    between atoms: _308  and  _311
REMARK  127  A    between atoms: _311  and  _312
REMARK  128  A    between atoms: _315  and  _317
REMARK  129  A    between atoms: _317  and  _318
REMARK  130  A    between atoms: _317  and  _320
REMARK  131  A    between atoms: _320  and  _321
REMARK  132  A    between atoms: _324  and  _326
REMARK  133  A    between atoms: _326  and  _327
REMARK  134  A    between atoms: _326  and  _329
REMARK  135  A    between atoms: _329  and  _330
REMARK  136  A    between atoms: _333  and  _335
REMARK  137  A    between atoms: _335  and  _336
REMARK  138  A    between atoms: _339  and  _341
REMARK  139  A    between atoms: _341  and  _342
REMARK  140  A    between atoms: _345  and  _347
REMARK  141  A    between atoms: _347  and  _348
REMARK  142  A    between atoms: _347  and  _350
REMARK  143  A    between atoms: _350  and  _351
REMARK  144  A    between atoms: _351  and  _352
REMARK  145  A    between atoms: _357  and  _359
REMARK  146  A    between atoms: _359  and  _360
REMARK  147  A    between atoms: _359  and  _362
REMARK  148  A    between atoms: _362  and  _363
REMARK  149  A    between atoms: _366  and  _368
REMARK  150  A    between atoms: _368  and  _369
REMARK  151  A    between atoms: _368  and  _371
REMARK  152  A    between atoms: _371  and  _372
REMARK  153  A    between atoms: _375  and  _377
REMARK  154  A    between atoms: _377  and  _378
REMARK  155  A    between atoms: _377  and  _380
REMARK  156  A    between atoms: _383  and  _385
REMARK  157  A    between atoms: _385  and  _386
REMARK  158  A    between atoms: _385  and  _388
REMARK  159  A    between atoms: _388  and  _389
REMARK  160  A    between atoms: _392  and  _394
REMARK  161  A    between atoms: _394  and  _395
REMARK  162  A    between atoms: _394  and  _397
REMARK  163  A    between atoms: _397  and  _398
REMARK  164  A    between atoms: _400  and  _402
REMARK  165  A    between atoms: _402  and  _403
REMARK  166  A    between atoms: _402  and  _405
REMARK  167  A    between atoms: _405  and  _406
REMARK  168  A    between atoms: _406  and  _407
REMARK  169  A    between atoms: _407  and  _408
REMARK  170  A    between atoms: _417  and  _419
REMARK  171  A    between atoms: _419  and  _420
REMARK  172  A    between atoms: _419  and  _422
REMARK  173  A    between atoms: _422  and  _423
REMARK  174  A    between atoms: _425  and  _427
REMARK  175  A    between atoms: _427  and  _428
REMARK  176  A    between atoms: _431  and  _433
REMARK  177  A    between atoms: _433  and  _434
REMARK  178  A    between atoms: _433  and  _436
REMARK  179  A    between atoms: _436  and  _437
REMARK  180  A    between atoms: _443  and  _444
REMARK  181  A    between atoms: _449  and  _451
REMARK  182  A    between atoms: _451  and  _452
REMARK  183  A    between atoms: _451  and  _454
REMARK  184  A    between atoms: _454  and  _455
REMARK  185  A    between atoms: _455  and  _456
REMARK  186  A    between atoms: _459  and  _461
REMARK  187  A    between atoms: _461  and  _462
REMARK  188  A    between atoms: _461  and  _464
REMARK  189  A    between atoms: _464  and  _465
REMARK  190  A    between atoms: _465  and  _466
REMARK  191  A    between atoms: _466  and  _467
REMARK  192  A    between atoms: _476  and  _478
REMARK  193  A    between atoms: _478  and  _479
REMARK  194  A    between atoms: _478  and  _481
REMARK  195  A    between atoms: _481  and  _482
REMARK  196  A    between atoms: _485  and  _487
REMARK  197  A    between atoms: _487  and  _488
REMARK  198  A    between atoms: _491  and  _493
REMARK  199  A    between atoms: _493  and  _494
REMARK  200  A    between atoms: _493  and  _496
REMARK  201  A    between atoms: _496  and  _497
REMARK  202  A    between atoms: _499  and  _501
REMARK  203  A    between atoms: _501  and  _502
REMARK  204  A    between atoms: _501  and  _504
REMARK  205  A    between atoms: _504  and  _505
REMARK  206  A    between atoms: _510  and  _512
REMARK  207  A    between atoms: _512  and  _513
REMARK  208  A    between atoms: _512  and  _515
REMARK  209  A    between atoms: _515  and  _516
REMARK  210  A    between atoms: _519  and  _521
REMARK  211  A    between atoms: _521  and  _522
REMARK  212  A    between atoms: _521  and  _524
REMARK  213  A    between atoms: _524  and  _525
REMARK  214  A    between atoms: _528  and  _530
REMARK  215  A    between atoms: _530  and  _531
REMARK  216  A    between atoms: _530  and  _533
REMARK  217  A    between atoms: _533  and  _534
REMARK  218  A    between atoms: _540  and  _542
REMARK  219  A    between atoms: _542  and  _543
REMARK  220  A    between atoms: _542  and  _545
REMARK  221  A    between atoms: _545  and  _546
REMARK  222  A    between atoms: _546  and  _547
REMARK  223  A    between atoms: _547  and  _548
REMARK                            x       y       z     vdW  Elec       q    Type
REMARK                         _______ _______ _______ _____ _____    ______ ____
ROOT
ATOM      1  O   HOH     1      13.512  51.289  -7.001  0.00  0.00    +0.000 OA
ENDROOT
TORSDOF 0
REMARK  Name = ../refined-set-2016/2wzm/2wzm_pocket.pdb
REMARK  223 active torsions:
REMARK  status: ('A' for Active; 'I' for Inactive)
REMARK    1  A    between atoms: _1  and  _3
REMARK    2  A    between atoms: _3  and  _4
REMARK    3  A    between atoms: _6  and  _8
REMARK    4  A    between atoms: _8  and  _9
REMARK    5  A    between atoms: _8  and  _11
REMARK    6  A    between atoms: _11  and  _12
REMARK    7  A    between atoms: _15  and  _17
REMARK    8  A    between atoms: _17  and  _18
REMARK    9  A    between atoms: _20  and  _22
REMARK   10  A    between atoms: _22  and  _23
REMARK   11  A    between atoms: _22  and  _25
REMARK   12  A    between atoms: _28  and  _30
REMARK   13  A    between atoms: _30  and  _31
REMARK   14  A    between atoms: _33  and  _35
REMARK   15  A    between atoms: _35  and  _36
REMARK   16  A    between atoms: _35  and  _38
REMARK   17  A    between atoms: _38  and  _39
REMARK   18  A    between atoms: _39  and  _40
REMARK   19  A    between atoms: _43  and  _45
REMARK   20  A    between atoms: _45  and  _46
REMARK   21  A    between atoms: _45  and  _48
REMARK   22  A    between atoms: _48  and  _49
REMARK   23  A    between atoms: _52  and  _54
REMARK   24  A    between atoms: _54  and  _55
REMARK   25  A    between atoms: _54  and  _57
REMARK   26  A    between atoms: _57  and  _58
REMARK   27  A    between atoms: _58  and  _59
REMARK   28  A    between atoms: _62  and  _64
REMARK   29  A    between atoms: _64  and  _65
REMARK   30  A    between atoms: _64  and  _67
REMARK   31  A    between atoms: _67  and  _68
REMARK   32  A    between atoms: _68  and  _69
REMARK   33  A    between atoms: _69  and  _70
REMARK   34  A    between atoms: _79  and  _81
REMARK   35  A    between atoms: _81  and  _82
REMARK   36  A    between atoms: _81  and  _84
REMARK   37  A    between atoms: _84  and  _85
REMARK   38  A    between atoms: _87  and  _89
REMARK   39  A    between atoms: _89  and  _90
REMARK   40  A    between atoms: _89  and  _92
REMARK   41  A    between atoms: _92  and  _93
REMARK   42  A    between atoms: _98  and  _99
REMARK   43  A    between atoms: _101  and  _103
REMARK   44  A    between atoms: _103  and  _104
REMARK   45  A    between atoms: _103  and  _106
REMARK   46  A    between atoms: _106  and  _107
REMARK   47  A    between atoms: _110  and  _112
REMARK   48  A    between atoms: _112  and  _113
REMARK   49  A    between atoms: _112  and  _115
REMARK   50  A    between atoms: _115  and  _116
REMARK   51  A    between atoms: _119  and  _121
REMARK   52  A    between atoms: _121  and  _122
REMARK   53  A    between atoms: _121  and  _124
REMARK   54  A    between atoms: _124  and  _125
REMARK   55  A    between atoms: _130  and  _131
REMARK   56  A    between atoms: _133  and  _135
REMARK   57  A    between atoms: _135  and  _136
REMARK   58  A    between atoms: _135  and  _138
REMARK   59  A    between atoms: _138  and  _139
REMARK   60  A    between atoms: _144  and  _146
REMARK   61  A    between atoms: _146  and  _147
REMARK   62  A    between atoms: _146  and  _149
REMARK   63  A    between atoms: _149  and  _150
REMARK   64  A    between atoms: _150  and  _151
REMARK   65  A    between atoms: _151  and  _152
REMARK   66  A    between atoms: _152  and  _153
REMARK   67  A    between atoms: _157  and  _159
REMARK   68  A    between atoms: _159  and  _160
REMARK   69  A    between atoms: _159  and  _162
REMARK   70  A    between atoms: _162  and  _163
REMARK   71  A    between atoms: _168  and  _170
REMARK   72  A    between atoms: _170  and  _171
REMARK   73  A    between atoms: _170  and  _173
REMARK   74  A    between atoms: _173  and  _174
REMARK   75  A    between atoms: _179  and  _181
REMARK   76  A    between atoms: _181  and  _182
REMARK   77  A    between atoms: _181  and  _184
REMARK   78  A    between atoms: _184  and  _185
REMARK   79  A    between atoms: _185  and  _186
REMARK   80  A    between atoms: _191  and  _193
REMARK   81  A    between atoms: _193  and  _194
REMARK   82  A    between atoms: _193  and  _196
REMARK   83  A    between atoms: _196  and  _197
REMARK   84  A    between atoms: _200  and  _202
REMARK   85  A    between atoms: _202  and  _203
REMARK   86  A    between atoms: _202  and  _205
REMARK   87  A    between atoms: _205  and  _206
REMARK   88  A    between atoms: _206  and  _207
REMARK   89  A    between atoms: _210  and  _212
REMARK   90  A    between atoms: _212  and  _213
REMARK   91  A    between atoms: _212  and  _215
REMARK   92  A    between atoms: _215  and  _216
REMARK   93  A    between atoms: _219  and  _221
REMARK   94  A    between atoms: _221  and  _222
REMARK   95  A    between atoms: _221  and  _224
REMARK   96  A    between atoms: _224  and  _225
REMARK   97  A    between atoms: _230  and  _232
REMARK   98  A    between atoms: _232  and  _233
REMARK   99  A    between atoms: _236  and  _238
REMARK  100  A    between atoms: _238  and  _239
REMARK  101  A    between atoms: _238  and  _241
REMARK  102  A    between atoms: _241  and  _242
REMARK  103  A    between atoms: _247  and  _248
REMARK  104  A    between atoms: _250  and  _252
REMARK  105  A    between atoms: _252  and  _253
REMARK  106  A    between atoms: _256  and  _257
REMARK  107  A    between atoms: _262  and  _264
REMARK  108  A    between atoms: _264  and  _265
REMARK  109  A    between atoms: _264  and  _267
REMARK  110  A    between atoms: _267  and  _268
REMARK  111  A    between atoms: _271  and  _273
REMARK  112  A    between atoms: _273  and  _274
REMARK  113  A    between atoms: _276  and  _278
REMARK  114  A    between atoms: _278  and  _279
REMARK  115  A    between atoms: _278  and  _281
REMARK  116  A    between atoms: _284  and  _286
REMARK  117  A    between atoms: _286  and  _287
REMARK  118  A    between atoms: _289  and  _291
REMARK  119  A    between atoms: _291  and  _292
REMARK  120  A    between atoms: _291  and  _294
REMARK  121  A    between atoms: _294  and  _295
REMARK  122  A    between atoms: _295  and  _296
REMARK  123  A    between atoms: _296  and  _297
REMARK  124  A    between atoms: _306  and  _308
REMARK  125  A    between atoms: _308  and  _309
REMARK  126  A    between atoms: _308  and  _311
REMARK  127  A    between atoms: _311  and  _312
REMARK  128  A    between atoms: _315  and  _317
REMARK  129  A    between atoms: _317  and  _318
REMARK  130  A    between atoms: _317  and  _320
REMARK  131  A    between atoms: _320  and  _321
REMARK  132  A    between atoms: _324  and  _326
REMARK  133  A    between atoms: _326  and  _327
REMARK  134  A    between atoms: _326  and  _329
REMARK  135  A    between atoms: _329  and  _330
REMARK  136  A    between atoms: _333  and  _335
REMARK  137  A    between atoms: _335  and  _336
REMARK  138  A    between atoms: _339  and  _341
REMARK  139  A    between atoms: _341  and  _342
REMARK  140  A    between atoms: _345  and  _347
REMARK  141  A    between atoms: _347  and  _348
REMARK  142  A    between atoms: _347  and  _350
REMARK  143  A    between atoms: _350  and  _351
REMARK  144  A    between atoms: _351  and  _352
REMARK  145  A    between atoms: _357  and  _359
REMARK  146  A    between atoms: _359  and  _360
REMARK  147  A    between atoms: _359  and  _362
REMARK  148  A    between atoms: _362  and  _363
REMARK  149  A    between atoms: _366  and  _368
REMARK  150  A    between atoms: _368  and  _369
REMARK  151  A    between atoms: _368  and  _371
REMARK  152  A    between atoms: _371  and  _372
REMARK  153  A    between atoms: _375  and  _377
REMARK  154  A    between atoms: _377  and  _378
REMARK  155  A    between atoms: _377  and  _380
REMARK  156  A    between atoms: _383  and  _385
REMARK  157  A    between atoms: _385  and  _386
REMARK  158  A    between atoms: _385  and  _388
REMARK  159  A    between atoms: _388  and  _389
REMARK  160  A    between atoms: _392  and  _394
REMARK  161  A    between atoms: _394  and  _395
REMARK  162  A    between atoms: _394  and  _397
REMARK  163  A    between atoms: _397  and  _398
REMARK  164  A    between atoms: _400  and  _402
REMARK  165  A    between atoms: _402  and  _403
REMARK  166  A    between atoms: _402  and  _405
REMARK  167  A    between atoms: _405  and  _406
REMARK  168  A    between atoms: _406  and  _407
REMARK  169  A    between atoms: _407  and  _408
REMARK  170  A    between atoms: _417  and  _419
REMARK  171  A    between atoms: _419  and  _420
REMARK  172  A    between atoms: _419  and  _422
REMARK  173  A    between atoms: _422  and  _423
REMARK  174  A    between atoms: _425  and  _427
REMARK  175  A    between atoms: _427  and  _428
REMARK  176  A    between atoms: _431  and  _433
REMARK  177  A    between atoms: _433  and  _434
REMARK  178  A    between atoms: _433  and  _436
REMARK  179  A    between atoms: _436  and  _437
REMARK  180  A    between atoms: _443  and  _444
REMARK  181  A    between atoms: _449  and  _451
REMARK  182  A    between atoms: _451  and  _452
REMARK  183  A    between atoms: _451  and  _454
REMARK  184  A    between atoms: _454  and  _455
REMARK  185  A    between atoms: _455  and  _456
REMARK  186  A    between atoms: _459  and  _461
REMARK  187  A    between atoms: _461  and  _462
REMARK  188  A    between atoms: _461  and  _464
REMARK  189  A    between atoms: _464  and  _465
REMARK  190  A    between atoms: _465  and  _466
REMARK  191  A    between atoms: _466  and  _467
REMARK  192  A    between atoms: _476  and  _478
REMARK  193  A    between atoms: _478  and  _479
REMARK  194  A    between atoms: _478  and  _481
REMARK  195  A    between atoms: _481  and  _482
REMARK  196  A    between atoms: _485  and  _487
REMARK  197  A    between atoms: _487  and  _488
REMARK  198  A    between atoms: _491  and  _493
REMARK  199  A    between atoms: _493  and  _494
REMARK  200  A    between atoms: _493  and  _496
REMARK  201  A    between atoms: _496  and  _497
REMARK  202  A    between atoms: _499  and  _501
REMARK  203  A    between atoms: _501  and  _502
REMARK  204  A    between atoms: _501  and  _504
REMARK  205  A    between atoms: _504  and  _505
REMARK  206  A    between atoms: _510  and  _512
REMARK  207  A    between atoms: _512  and  _513
REMARK  208  A    between atoms: _512  and  _515
REMARK  209  A    between atoms: _515  and  _516
REMARK  210  A    between atoms: _519  and  _521
REMARK  211  A    between atoms: _521  and  _522
REMARK  212  A    between atoms: _521  and  _524
REMARK  213  A    between atoms: _524  and  _525
REMARK  214  A    between atoms: _528  and  _530
REMARK  215  A    between atoms: _530  and  _531
REMARK  216  A    between atoms: _530  and  _533
REMARK  217  A    between atoms: _533  and  _534
REMARK  218  A    between atoms: _540  and  _542
REMARK  219  A    between atoms: _542  and  _543
REMARK  220  A    between atoms: _542  and  _545
REMARK  221  A    between atoms: _545  and  _546
REMARK  222  A    between atoms: _546  and  _547
REMARK  223  A    between atoms: _547  and  _548
REMARK                            x       y       z     vdW  Elec       q    Type
REMARK                         _______ _______ _______ _____ _____    ______ ____
ROOT
ATOM      1  O   HOH     1      13.567  50.778   3.486  0.00  0.00    +0.000 OA
ENDROOT
TORSDOF 0
REMARK  Name = ../refined-set-2016/2wzm/2wzm_pocket.pdb
REMARK  223 active torsions:
REMARK  status: ('A' for Active; 'I' for Inactive)
REMARK    1  A    between atoms: _1  and  _3
REMARK    2  A    between atoms: _3  and  _4
REMARK    3  A    between atoms: _6  and  _8
REMARK    4  A    between atoms: _8  and  _9
REMARK    5  A    between atoms: _8  and  _11
REMARK    6  A    between atoms: _11  and  _12
REMARK    7  A    between atoms: _15  and  _17
REMARK    8  A    between atoms: _17  and  _18
REMARK    9  A    between atoms: _20  and  _22
REMARK   10  A    between atoms: _22  and  _23
REMARK   11  A    between atoms: _22  and  _25
REMARK   12  A    between atoms: _28  and  _30
REMARK   13  A    between atoms: _30  and  _31
REMARK   14  A    between atoms: _33  and  _35
REMARK   15  A    between atoms: _35  and  _36
REMARK   16  A    between atoms: _35  and  _38
REMARK   17  A    between atoms: _38  and  _39
REMARK   18  A    between atoms: _39  and  _40
REMARK   19  A    between atoms: _43  and  _45
REMARK   20  A    between atoms: _45  and  _46
REMARK   21  A    between atoms: _45  and  _48
REMARK   22  A    between atoms: _48  and  _49
REMARK   23  A    between atoms: _52  and  _54
REMARK   24  A    between atoms: _54  and  _55
REMARK   25  A    between atoms: _54  and  _57
REMARK   26  A    between atoms: _57  and  _58
REMARK   27  A    between atoms: _58  and  _59
REMARK   28  A    between atoms: _62  and  _64
REMARK   29  A    between atoms: _64  and  _65
REMARK   30  A    between atoms: _64  and  _67
REMARK   31  A    between atoms: _67  and  _68
REMARK   32  A    between atoms: _68  and  _69
REMARK   33  A    between atoms: _69  and  _70
REMARK   34  A    between atoms: _79  and  _81
REMARK   35  A    between atoms: _81  and  _82
REMARK   36  A    between atoms: _81  and  _84
REMARK   37  A    between atoms: _84  and  _85
REMARK   38  A    between atoms: _87  and  _89
REMARK   39  A    between atoms: _89  and  _90
REMARK   40  A    between atoms: _89  and  _92
REMARK   41  A    between atoms: _92  and  _93
REMARK   42  A    between atoms: _98  and  _99
REMARK   43  A    between atoms: _101  and  _103
REMARK   44  A    between atoms: _103  and  _104
REMARK   45  A    between atoms: _103  and  _106
REMARK   46  A    between atoms: _106  and  _107
REMARK   47  A    between atoms: _110  and  _112
REMARK   48  A    between atoms: _112  and  _113
REMARK   49  A    between atoms: _112  and  _115
REMARK   50  A    between atoms: _115  and  _116
REMARK   51  A    between atoms: _119  and  _121
REMARK   52  A    between atoms: _121  and  _122
REMARK   53  A    between atoms: _121  and  _124
REMARK   54  A    between atoms: _124  and  _125
REMARK   55  A    between atoms: _130  and  _131
REMARK   56  A    between atoms: _133  and  _135
REMARK   57  A    between atoms: _135  and  _136
REMARK   58  A    between atoms: _135  and  _138
REMARK   59  A    between atoms: _138  and  _139
REMARK   60  A    between atoms: _144  and  _146
REMARK   61  A    between atoms: _146  and  _147
REMARK   62  A    between atoms: _146  and  _149
REMARK   63  A    between atoms: _149  and  _150
REMARK   64  A    between atoms: _150  and  _151
REMARK   65  A    between atoms: _151  and  _152
REMARK   66  A    between atoms: _152  and  _153
REMARK   67  A    between atoms: _157  and  _159
REMARK   68  A    between atoms: _159  and  _160
REMARK   69  A    between atoms: _159  and  _162
REMARK   70  A    between atoms: _162  and  _163
REMARK   71  A    between atoms: _168  and  _170
REMARK   72  A    between atoms: _170  and  _171
REMARK   73  A    between atoms: _170  and  _173
REMARK   74  A    between atoms: _173  and  _174
REMARK   75  A    between atoms: _179  and  _181
REMARK   76  A    between atoms: _181  and  _182
REMARK   77  A    between atoms: _181  and  _184
REMARK   78  A    between atoms: _184  and  _185
REMARK   79  A    between atoms: _185  and  _186
REMARK   80  A    between atoms: _191  and  _193
REMARK   81  A    between atoms: _193  and  _194
REMARK   82  A    between atoms: _193  and  _196
REMARK   83  A    between atoms: _196  and  _197
REMARK   84  A    between atoms: _200  and  _202
REMARK   85  A    between atoms: _202  and  _203
REMARK   86  A    between atoms: _202  and  _205
REMARK   87  A    between atoms: _205  and  _206
REMARK   88  A    between atoms: _206  and  _207
REMARK   89  A    between atoms: _210  and  _212
REMARK   90  A    between atoms: _212  and  _213
REMARK   91  A    between atoms: _212  and  _215
REMARK   92  A    between atoms: _215  and  _216
REMARK   93  A    between atoms: _219  and  _221
REMARK   94  A    between atoms: _221  and  _222
REMARK   95  A    between atoms: _221  and  _224
REMARK   96  A    between atoms: _224  and  _225
REMARK   97  A    between atoms: _230  and  _232
REMARK   98  A    between atoms: _232  and  _233
REMARK   99  A    between atoms: _236  and  _238
REMARK  100  A    between atoms: _238  and  _239
REMARK  101  A    between atoms: _238  and  _241
REMARK  102  A    between atoms: _241  and  _242
REMARK  103  A    between atoms: _247  and  _248
REMARK  104  A    between atoms: _250  and  _252
REMARK  105  A    between atoms: _252  and  _253
REMARK  106  A    between atoms: _256  and  _257
REMARK  107  A    between atoms: _262  and  _264
REMARK  108  A    between atoms: _264  and  _265
REMARK  109  A    between atoms: _264  and  _267
REMARK  110  A    between atoms: _267  and  _268
REMARK  111  A    between atoms: _271  and  _273
REMARK  112  A    between atoms: _273  and  _274
REMARK  113  A    between atoms: _276  and  _278
REMARK  114  A    between atoms: _278  and  _279
REMARK  115  A    between atoms: _278  and  _281
REMARK  116  A    between atoms: _284  and  _286
REMARK  117  A    between atoms: _286  and  _287
REMARK  118  A    between atoms: _289  and  _291
REMARK  119  A    between atoms: _291  and  _292
REMARK  120  A    between atoms: _291  and  _294
REMARK  121  A    between atoms: _294  and  _295
REMARK  122  A    between atoms: _295  and  _296
REMARK  123  A    between atoms: _296  and  _297
REMARK  124  A    between atoms: _306  and  _308
REMARK  125  A    between atoms: _308  and  _309
REMARK  126  A    between atoms: _308  and  _311
REMARK  127  A    between atoms: _311  and  _312
REMARK  128  A    between atoms: _315  and  _317
REMARK  129  A    between atoms: _317  and  _318
REMARK  130  A    between atoms: _317  and  _320
REMARK  131  A    between atoms: _320  and  _321
REMARK  132  A    between atoms: _324  and  _326
REMARK  133  A    between atoms: _326  and  _327
REMARK  134  A    between atoms: _326  and  _329
REMARK  135  A    between atoms: _329  and  _330
REMARK  136  A    between atoms: _333  and  _335
REMARK  137  A    between atoms: _335  and  _336
REMARK  138  A    between atoms: _339  and  _341
REMARK  139  A    between atoms: _341  and  _342
REMARK  140  A    between atoms: _345  and  _347
REMARK  141  A    between atoms: _347  and  _348
REMARK  142  A    between atoms: _347  and  _350
REMARK  143  A    between atoms: _350  and  _351
REMARK  144  A    between atoms: _351  and  _352
REMARK  145  A    between atoms: _357  and  _359
REMARK  146  A    between atoms: _359  and  _360
REMARK  147  A    between atoms: _359  and  _362
REMARK  148  A    between atoms: _362  and  _363
REMARK  149  A    between atoms: _366  and  _368
REMARK  150  A    between atoms: _368  and  _369
REMARK  151  A    between atoms: _368  and  _371
REMARK  152  A    between atoms: _371  and  _372
REMARK  153  A    between atoms: _375  and  _377
REMARK  154  A    between atoms: _377  and  _378
REMARK  155  A    between atoms: _377  and  _380
REMARK  156  A    between atoms: _383  and  _385
REMARK  157  A    between atoms: _385  and  _386
REMARK  158  A    between atoms: _385  and  _388
REMARK  159  A    between atoms: _388  and  _389
REMARK  160  A    between atoms: _392  and  _394
REMARK  161  A    between atoms: _394  and  _395
REMARK  162  A    between atoms: _394  and  _397
REMARK  163  A    between atoms: _397  and  _398
REMARK  164  A    between atoms: _400  and  _402
REMARK  165  A    between atoms: _402  and  _403
REMARK  166  A    between atoms: _402  and  _405
REMARK  167  A    between atoms: _405  and  _406
REMARK  168  A    between atoms: _406  and  _407
REMARK  169  A    between atoms: _407  and  _408
REMARK  170  A    between atoms: _417  and  _419
REMARK  171  A    between atoms: _419  and  _420
REMARK  172  A    between atoms: _419  and  _422
REMARK  173  A    between atoms: _422  and  _423
REMARK  174  A    between atoms: _425  and  _427
REMARK  175  A    between atoms: _427  and  _428
REMARK  176  A    between atoms: _431  and  _433
REMARK  177  A    between atoms: _433  and  _434
REMARK  178  A    between atoms: _433  and  _436
REMARK  179  A    between atoms: _436  and  _437
REMARK  180  A    between atoms: _443  and  _444
REMARK  181  A    between atoms: _449  and  _451
REMARK  182  A    between atoms: _451  and  _452
REMARK  183  A    between atoms: _451  and  _454
REMARK  184  A    between atoms: _454  and  _455
REMARK  185  A    between atoms: _455  and  _456
REMARK  186  A    between atoms: _459  and  _461
REMARK  187  A    between atoms: _461  and  _462
REMARK  188  A    between atoms: _461  and  _464
REMARK  189  A    between atoms: _464  and  _465
REMARK  190  A    between atoms: _465  and  _466
REMARK  191  A    between atoms: _466  and  _467
REMARK  192  A    between atoms: _476  and  _478
REMARK  193  A    between atoms: _478  and  _479
REMARK  194  A    between atoms: _478  and  _481
REMARK  195  A    between atoms: _481  and  _482
REMARK  196  A    between atoms: _485  and  _487
REMARK  197  A    between atoms: _487  and  _488
REMARK  198  A    between atoms: _491  and  _493
REMARK  199  A    between atoms: _493  and  _494
REMARK  200  A    between atoms: _493  and  _496
REMARK  201  A    between atoms: _496  and  _497
REMARK  202  A    between atoms: _499  and  _501
REMARK  203  A    between atoms: _501  and  _502
REMARK  204  A    between atoms: _501  and  _504
REMARK  205  A    between atoms: _504  and  _505
REMARK  206  A    between atoms: _510  and  _512
REMARK  207  A    between atoms: _512  and  _513
REMARK  208  A    between atoms: _512  and  _515
REMARK  209  A    between atoms: _515  and  _516
REMARK  210  A    between atoms: _519  and  _521
REMARK  211  A    between atoms: _521  and  _522
REMARK  212  A    between atoms: _521  and  _524
REMARK  213  A    between atoms: _524  and  _525
REMARK  214  A    between atoms: _528  and  _530
REMARK  215  A    between atoms: _530  and  _531
REMARK  216  A    between atoms: _530  and  _533
REMARK  217  A    between atoms: _533  and  _534
REMARK  218  A    between atoms: _540  and  _542
REMARK  219  A    between atoms: _542  and  _543
REMARK  220  A    between atoms: _542  and  _545
REMARK  221  A    between atoms: _545  and  _546
REMARK  222  A    between atoms: _546  and  _547
REMARK  223  A    between atoms: _547  and  _548
REMARK                            x       y       z     vdW  Elec       q    Type
REMARK                         _______ _______ _______ _____ _____    ______ ____
ROOT
ATOM      1  O   HOH     1       5.407  43.790 -14.712  0.00  0.00    +0.000 OA
ENDROOT
TORSDOF 0
REMARK  Name = ../refined-set-2016/2wzm/2wzm_pocket.pdb
REMARK  223 active torsions:
REMARK  status: ('A' for Active; 'I' for Inactive)
REMARK    1  A    between atoms: _1  and  _3
REMARK    2  A    between atoms: _3  and  _4
REMARK    3  A    between atoms: _6  and  _8
REMARK    4  A    between atoms: _8  and  _9
REMARK    5  A    between atoms: _8  and  _11
REMARK    6  A    between atoms: _11  and  _12
REMARK    7  A    between atoms: _15  and  _17
REMARK    8  A    between atoms: _17  and  _18
REMARK    9  A    between atoms: _20  and  _22
REMARK   10  A    between atoms: _22  and  _23
REMARK   11  A    between atoms: _22  and  _25
REMARK   12  A    between atoms: _28  and  _30
REMARK   13  A    between atoms: _30  and  _31
REMARK   14  A    between atoms: _33  and  _35
REMARK   15  A    between atoms: _35  and  _36
REMARK   16  A    between atoms: _35  and  _38
REMARK   17  A    between atoms: _38  and  _39
REMARK   18  A    between atoms: _39  and  _40
REMARK   19  A    between atoms: _43  and  _45
REMARK   20  A    between atoms: _45  and  _46
REMARK   21  A    between atoms: _45  and  _48
REMARK   22  A    between atoms: _48  and  _49
REMARK   23  A    between atoms: _52  and  _54
REMARK   24  A    between atoms: _54  and  _55
REMARK   25  A    between atoms: _54  and  _57
REMARK   26  A    between atoms: _57  and  _58
REMARK   27  A    between atoms: _58  and  _59
REMARK   28  A    between atoms: _62  and  _64
REMARK   29  A    between atoms: _64  and  _65
REMARK   30  A    between atoms: _64  and  _67
REMARK   31  A    between atoms: _67  and  _68
REMARK   32  A    between atoms: _68  and  _69
REMARK   33  A    between atoms: _69  and  _70
REMARK   34  A    between atoms: _79  and  _81
REMARK   35  A    between atoms: _81  and  _82
REMARK   36  A    between atoms: _81  and  _84
REMARK   37  A    between atoms: _84  and  _85
REMARK   38  A    between atoms: _87  and  _89
REMARK   39  A    between atoms: _89  and  _90
REMARK   40  A    between atoms: _89  and  _92
REMARK   41  A    between atoms: _92  and  _93
REMARK   42  A    between atoms: _98  and  _99
REMARK   43  A    between atoms: _101  and  _103
REMARK   44  A    between atoms: _103  and  _104
REMARK   45  A    between atoms: _103  and  _106
REMARK   46  A    between atoms: _106  and  _107
REMARK   47  A    between atoms: _110  and  _112
REMARK   48  A    between atoms: _112  and  _113
REMARK   49  A    between atoms: _112  and  _115
REMARK   50  A    between atoms: _115  and  _116
REMARK   51  A    between atoms: _119  and  _121
REMARK   52  A    between atoms: _121  and  _122
REMARK   53  A    between atoms: _121  and  _124
REMARK   54  A    between atoms: _124  and  _125
REMARK   55  A    between atoms: _130  and  _131
REMARK   56  A    between atoms: _133  and  _135
REMARK   57  A    between atoms: _135  and  _136
REMARK   58  A    between atoms: _135  and  _138
REMARK   59  A    between atoms: _138  and  _139
REMARK   60  A    between atoms: _144  and  _146
REMARK   61  A    between atoms: _146  and  _147
REMARK   62  A    between atoms: _146  and  _149
REMARK   63  A    between atoms: _149  and  _150
REMARK   64  A    between atoms: _150  and  _151
REMARK   65  A    between atoms: _151  and  _152
REMARK   66  A    between atoms: _152  and  _153
REMARK   67  A    between atoms: _157  and  _159
REMARK   68  A    between atoms: _159  and  _160
REMARK   69  A    between atoms: _159  and  _162
REMARK   70  A    between atoms: _162  and  _163
REMARK   71  A    between atoms: _168  and  _170
REMARK   72  A    between atoms: _170  and  _171
REMARK   73  A    between atoms: _170  and  _173
REMARK   74  A    between atoms: _173  and  _174
REMARK   75  A    between atoms: _179  and  _181
REMARK   76  A    between atoms: _181  and  _182
REMARK   77  A    between atoms: _181  and  _184
REMARK   78  A    between atoms: _184  and  _185
REMARK   79  A    between atoms: _185  and  _186
REMARK   80  A    between atoms: _191  and  _193
REMARK   81  A    between atoms: _193  and  _194
REMARK   82  A    between atoms: _193  and  _196
REMARK   83  A    between atoms: _196  and  _197
REMARK   84  A    between atoms: _200  and  _202
REMARK   85  A    between atoms: _202  and  _203
REMARK   86  A    between atoms: _202  and  _205
REMARK   87  A    between atoms: _205  and  _206
REMARK   88  A    between atoms: _206  and  _207
REMARK   89  A    between atoms: _210  and  _212
REMARK   90  A    between atoms: _212  and  _213
REMARK   91  A    between atoms: _212  and  _215
REMARK   92  A    between atoms: _215  and  _216
REMARK   93  A    between atoms: _219  and  _221
REMARK   94  A    between atoms: _221  and  _222
REMARK   95  A    between atoms: _221  and  _224
REMARK   96  A    between atoms: _224  and  _225
REMARK   97  A    between atoms: _230  and  _232
REMARK   98  A    between atoms: _232  and  _233
REMARK   99  A    between atoms: _236  and  _238
REMARK  100  A    between atoms: _238  and  _239
REMARK  101  A    between atoms: _238  and  _241
REMARK  102  A    between atoms: _241  and  _242
REMARK  103  A    between atoms: _247  and  _248
REMARK  104  A    between atoms: _250  and  _252
REMARK  105  A    between atoms: _252  and  _253
REMARK  106  A    between atoms: _256  and  _257
REMARK  107  A    between atoms: _262  and  _264
REMARK  108  A    between atoms: _264  and  _265
REMARK  109  A    between atoms: _264  and  _267
REMARK  110  A    between atoms: _267  and  _268
REMARK  111  A    between atoms: _271  and  _273
REMARK  112  A    between atoms: _273  and  _274
REMARK  113  A    between atoms: _276  and  _278
REMARK  114  A    between atoms: _278  and  _279
REMARK  115  A    between atoms: _278  and  _281
REMARK  116  A    between atoms: _284  and  _286
REMARK  117  A    between atoms: _286  and  _287
REMARK  118  A    between atoms: _289  and  _291
REMARK  119  A    between atoms: _291  and  _292
REMARK  120  A    between atoms: _291  and  _294
REMARK  121  A    between atoms: _294  and  _295
REMARK  122  A    between atoms: _295  and  _296
REMARK  123  A    between atoms: _296  and  _297
REMARK  124  A    between atoms: _306  and  _308
REMARK  125  A    between atoms: _308  and  _309
REMARK  126  A    between atoms: _308  and  _311
REMARK  127  A    between atoms: _311  and  _312
REMARK  128  A    between atoms: _315  and  _317
REMARK  129  A    between atoms: _317  and  _318
REMARK  130  A    between atoms: _317  and  _320
REMARK  131  A    between atoms: _320  and  _321
REMARK  132  A    between atoms: _324  and  _326
REMARK  133  A    between atoms: _326  and  _327
REMARK  134  A    between atoms: _326  and  _329
REMARK  135  A    between atoms: _329  and  _330
REMARK  136  A    between atoms: _333  and  _335
REMARK  137  A    between atoms: _335  and  _336
REMARK  138  A    between atoms: _339  and  _341
REMARK  139  A    between atoms: _341  and  _342
REMARK  140  A    between atoms: _345  and  _347
REMARK  141  A    between atoms: _347  and  _348
REMARK  142  A    between atoms: _347  and  _350
REMARK  143  A    between atoms: _350  and  _351
REMARK  144  A    between atoms: _351  and  _352
REMARK  145  A    between atoms: _357  and  _359
REMARK  146  A    between atoms: _359  and  _360
REMARK  147  A    between atoms: _359  and  _362
REMARK  148  A    between atoms: _362  and  _363
REMARK  149  A    between atoms: _366  and  _368
REMARK  150  A    between atoms: _368  and  _369
REMARK  151  A    between atoms: _368  and  _371
REMARK  152  A    between atoms: _371  and  _372
REMARK  153  A    between atoms: _375  and  _377
REMARK  154  A    between atoms: _377  and  _378
REMARK  155  A    between atoms: _377  and  _380
REMARK  156  A    between atoms: _383  and  _385
REMARK  157  A    between atoms: _385  and  _386
REMARK  158  A    between atoms: _385  and  _388
REMARK  159  A    between atoms: _388  and  _389
REMARK  160  A    between atoms: _392  and  _394
REMARK  161  A    between atoms: _394  and  _395
REMARK  162  A    between atoms: _394  and  _397
REMARK  163  A    between atoms: _397  and  _398
REMARK  164  A    between atoms: _400  and  _402
REMARK  165  A    between atoms: _402  and  _403
REMARK  166  A    between atoms: _402  and  _405
REMARK  167  A    between atoms: _405  and  _406
REMARK  168  A    between atoms: _406  and  _407
REMARK  169  A    between atoms: _407  and  _408
REMARK  170  A    between atoms: _417  and  _419
REMARK  171  A    between atoms: _419  and  _420
REMARK  172  A    between atoms: _419  and  _422
REMARK  173  A    between atoms: _422  and  _423
REMARK  174  A    between atoms: _425  and  _427
REMARK  175  A    between atoms: _427  and  _428
REMARK  176  A    between atoms: _431  and  _433
REMARK  177  A    between atoms: _433  and  _434
REMARK  178  A    between atoms: _433  and  _436
REMARK  179  A    between atoms: _436  and  _437
REMARK  180  A    between atoms: _443  and  _444
REMARK  181  A    between atoms: _449  and  _451
REMARK  182  A    between atoms: _451  and  _452
REMARK  183  A    between atoms: _451  and  _454
REMARK  184  A    between atoms: _454  and  _455
REMARK  185  A    between atoms: _455  and  _456
REMARK  186  A    between atoms: _459  and  _461
REMARK  187  A    between atoms: _461  and  _462
REMARK  188  A    between atoms: _461  and  _464
REMARK  189  A    between atoms: _464  and  _465
REMARK  190  A    between atoms: _465  and  _466
REMARK  191  A    between atoms: _466  and  _467
REMARK  192  A    between atoms: _476  and  _478
REMARK  193  A    between atoms: _478  and  _479
REMARK  194  A    between atoms: _478  and  _481
REMARK  195  A    between atoms: _481  and  _482
REMARK  196  A    between atoms: _485  and  _487
REMARK  197  A    between atoms: _487  and  _488
REMARK  198  A    between atoms: _491  and  _493
REMARK  199  A    between atoms: _493  and  _494
REMARK  200  A    between atoms: _493  and  _496
REMARK  201  A    between atoms: _496  and  _497
REMARK  202  A    between atoms: _499  and  _501
REMARK  203  A    between atoms: _501  and  _502
REMARK  204  A    between atoms: _501  and  _504
REMARK  205  A    between atoms: _504  and  _505
REMARK  206  A    between atoms: _510  and  _512
REMARK  207  A    between atoms: _512  and  _513
REMARK  208  A    between atoms: _512  and  _515
REMARK  209  A    between atoms: _515  and  _516
REMARK  210  A    between atoms: _519  and  _521
REMARK  211  A    between atoms: _521  and  _522
REMARK  212  A    between atoms: _521  and  _524
REMARK  213  A    between atoms: _524  and  _525
REMARK  214  A    between atoms: _528  and  _530
REMARK  215  A    between atoms: _530  and  _531
REMARK  216  A    between atoms: _530  and  _533
REMARK  217  A    between atoms: _533  and  _534
REMARK  218  A    between atoms: _540  and  _542
REMARK  219  A    between atoms: _542  and  _543
REMARK  220  A    between atoms: _542  and  _545
REMARK  221  A    between atoms: _545  and  _546
REMARK  222  A    between atoms: _546  and  _547
REMARK  223  A    between atoms: _547  and  _548
REMARK                            x       y       z     vdW  Elec       q    Type
REMARK                         _______ _______ _______ _____ _____    ______ ____
ROOT
ATOM      1  O   HOH     1       3.325  46.783   0.478  0.00  0.00    +0.000 OA
ENDROOT
TORSDOF 0
REMARK  Name = ../refined-set-2016/2wzm/2wzm_pocket.pdb
REMARK  223 active torsions:
REMARK  status: ('A' for Active; 'I' for Inactive)
REMARK    1  A    between atoms: _1  and  _3
REMARK    2  A    between atoms: _3  and  _4
REMARK    3  A    between atoms: _6  and  _8
REMARK    4  A    between atoms: _8  and  _9
REMARK    5  A    between atoms: _8  and  _11
REMARK    6  A    between atoms: _11  and  _12
REMARK    7  A    between atoms: _15  and  _17
REMARK    8  A    between atoms: _17  and  _18
REMARK    9  A    between atoms: _20  and  _22
REMARK   10  A    between atoms: _22  and  _23
REMARK   11  A    between atoms: _22  and  _25
REMARK   12  A    between atoms: _28  and  _30
REMARK   13  A    between atoms: _30  and  _31
REMARK   14  A    between atoms: _33  and  _35
REMARK   15  A    between atoms: _35  and  _36
REMARK   16  A    between atoms: _35  and  _38
REMARK   17  A    between atoms: _38  and  _39
REMARK   18  A    between atoms: _39  and  _40
REMARK   19  A    between atoms: _43  and  _45
REMARK   20  A    between atoms: _45  and  _46
REMARK   21  A    between atoms: _45  and  _48
REMARK   22  A    between atoms: _48  and  _49
REMARK   23  A    between atoms: _52  and  _54
REMARK   24  A    between atoms: _54  and  _55
REMARK   25  A    between atoms: _54  and  _57
REMARK   26  A    between atoms: _57  and  _58
REMARK   27  A    between atoms: _58  and  _59
REMARK   28  A    between atoms: _62  and  _64
REMARK   29  A    between atoms: _64  and  _65
REMARK   30  A    between atoms: _64  and  _67
REMARK   31  A    between atoms: _67  and  _68
REMARK   32  A    between atoms: _68  and  _69
REMARK   33  A    between atoms: _69  and  _70
REMARK   34  A    between atoms: _79  and  _81
REMARK   35  A    between atoms: _81  and  _82
REMARK   36  A    between atoms: _81  and  _84
REMARK   37  A    between atoms: _84  and  _85
REMARK   38  A    between atoms: _87  and  _89
REMARK   39  A    between atoms: _89  and  _90
REMARK   40  A    between atoms: _89  and  _92
REMARK   41  A    between atoms: _92  and  _93
REMARK   42  A    between atoms: _98  and  _99
REMARK   43  A    between atoms: _101  and  _103
REMARK   44  A    between atoms: _103  and  _104
REMARK   45  A    between atoms: _103  and  _106
REMARK   46  A    between atoms: _106  and  _107
REMARK   47  A    between atoms: _110  and  _112
REMARK   48  A    between atoms: _112  and  _113
REMARK   49  A    between atoms: _112  and  _115
REMARK   50  A    between atoms: _115  and  _116
REMARK   51  A    between atoms: _119  and  _121
REMARK   52  A    between atoms: _121  and  _122
REMARK   53  A    between atoms: _121  and  _124
REMARK   54  A    between atoms: _124  and  _125
REMARK   55  A    between atoms: _130  and  _131
REMARK   56  A    between atoms: _133  and  _135
REMARK   57  A    between atoms: _135  and  _136
REMARK   58  A    between atoms: _135  and  _138
REMARK   59  A    between atoms: _138  and  _139
REMARK   60  A    between atoms: _144  and  _146
REMARK   61  A    between atoms: _146  and  _147
REMARK   62  A    between atoms: _146  and  _149
REMARK   63  A    between atoms: _149  and  _150
REMARK   64  A    between atoms: _150  and  _151
REMARK   65  A    between atoms: _151  and  _152
REMARK   66  A    between atoms: _152  and  _153
REMARK   67  A    between atoms: _157  and  _159
REMARK   68  A    between atoms: _159  and  _160
REMARK   69  A    between atoms: _159  and  _162
REMARK   70  A    between atoms: _162  and  _163
REMARK   71  A    between atoms: _168  and  _170
REMARK   72  A    between atoms: _170  and  _171
REMARK   73  A    between atoms: _170  and  _173
REMARK   74  A    between atoms: _173  and  _174
REMARK   75  A    between atoms: _179  and  _181
REMARK   76  A    between atoms: _181  and  _182
REMARK   77  A    between atoms: _181  and  _184
REMARK   78  A    between atoms: _184  and  _185
REMARK   79  A    between atoms: _185  and  _186
REMARK   80  A    between atoms: _191  and  _193
REMARK   81  A    between atoms: _193  and  _194
REMARK   82  A    between atoms: _193  and  _196
REMARK   83  A    between atoms: _196  and  _197
REMARK   84  A    between atoms: _200  and  _202
REMARK   85  A    between atoms: _202  and  _203
REMARK   86  A    between atoms: _202  and  _205
REMARK   87  A    between atoms: _205  and  _206
REMARK   88  A    between atoms: _206  and  _207
REMARK   89  A    between atoms: _210  and  _212
REMARK   90  A    between atoms: _212  and  _213
REMARK   91  A    between atoms: _212  and  _215
REMARK   92  A    between atoms: _215  and  _216
REMARK   93  A    between atoms: _219  and  _221
REMARK   94  A    between atoms: _221  and  _222
REMARK   95  A    between atoms: _221  and  _224
REMARK   96  A    between atoms: _224  and  _225
REMARK   97  A    between atoms: _230  and  _232
REMARK   98  A    between atoms: _232  and  _233
REMARK   99  A    between atoms: _236  and  _238
REMARK  100  A    between atoms: _238  and  _239
REMARK  101  A    between atoms: _238  and  _241
REMARK  102  A    between atoms: _241  and  _242
REMARK  103  A    between atoms: _247  and  _248
REMARK  104  A    between atoms: _250  and  _252
REMARK  105  A    between atoms: _252  and  _253
REMARK  106  A    between atoms: _256  and  _257
REMARK  107  A    between atoms: _262  and  _264
REMARK  108  A    between atoms: _264  and  _265
REMARK  109  A    between atoms: _264  and  _267
REMARK  110  A    between atoms: _267  and  _268
REMARK  111  A    between atoms: _271  and  _273
REMARK  112  A    between atoms: _273  and  _274
REMARK  113  A    between atoms: _276  and  _278
REMARK  114  A    between atoms: _278  and  _279
REMARK  115  A    between atoms: _278  and  _281
REMARK  116  A    between atoms: _284  and  _286
REMARK  117  A    between atoms: _286  and  _287
REMARK  118  A    between atoms: _289  and  _291
REMARK  119  A    between atoms: _291  and  _292
REMARK  120  A    between atoms: _291  and  _294
REMARK  121  A    between atoms: _294  and  _295
REMARK  122  A    between atoms: _295  and  _296
REMARK  123  A    between atoms: _296  and  _297
REMARK  124  A    between atoms: _306  and  _308
REMARK  125  A    between atoms: _308  and  _309
REMARK  126  A    between atoms: _308  and  _311
REMARK  127  A    between atoms: _311  and  _312
REMARK  128  A    between atoms: _315  and  _317
REMARK  129  A    between atoms: _317  and  _318
REMARK  130  A    between atoms: _317  and  _320
REMARK  131  A    between atoms: _320  and  _321
REMARK  132  A    between atoms: _324  and  _326
REMARK  133  A    between atoms: _326  and  _327
REMARK  134  A    between atoms: _326  and  _329
REMARK  135  A    between atoms: _329  and  _330
REMARK  136  A    between atoms: _333  and  _335
REMARK  137  A    between atoms: _335  and  _336
REMARK  138  A    between atoms: _339  and  _341
REMARK  139  A    between atoms: _341  and  _342
REMARK  140  A    between atoms: _345  and  _347
REMARK  141  A    between atoms: _347  and  _348
REMARK  142  A    between atoms: _347  and  _350
REMARK  143  A    between atoms: _350  and  _351
REMARK  144  A    between atoms: _351  and  _352
REMARK  145  A    between atoms: _357  and  _359
REMARK  146  A    between atoms: _359  and  _360
REMARK  147  A    between atoms: _359  and  _362
REMARK  148  A    between atoms: _362  and  _363
REMARK  149  A    between atoms: _366  and  _368
REMARK  150  A    between atoms: _368  and  _369
REMARK  151  A    between atoms: _368  and  _371
REMARK  152  A    between atoms: _371  and  _372
REMARK  153  A    between atoms: _375  and  _377
REMARK  154  A    between atoms: _377  and  _378
REMARK  155  A    between atoms: _377  and  _380
REMARK  156  A    between atoms: _383  and  _385
REMARK  157  A    between atoms: _385  and  _386
REMARK  158  A    between atoms: _385  and  _388
REMARK  159  A    between atoms: _388  and  _389
REMARK  160  A    between atoms: _392  and  _394
REMARK  161  A    between atoms: _394  and  _395
REMARK  162  A    between atoms: _394  and  _397
REMARK  163  A    between atoms: _397  and  _398
REMARK  164  A    between atoms: _400  and  _402
REMARK  165  A    between atoms: _402  and  _403
REMARK  166  A    between atoms: _402  and  _405
REMARK  167  A    between atoms: _405  and  _406
REMARK  168  A    between atoms: _406  and  _407
REMARK  169  A    between atoms: _407  and  _408
REMARK  170  A    between atoms: _417  and  _419
REMARK  171  A    between atoms: _419  and  _420
REMARK  172  A    between atoms: _419  and  _422
REMARK  173  A    between atoms: _422  and  _423
REMARK  174  A    between atoms: _425  and  _427
REMARK  175  A    between atoms: _427  and  _428
REMARK  176  A    between atoms: _431  and  _433
REMARK  177  A    between atoms: _433  and  _434
REMARK  178  A    between atoms: _433  and  _436
REMARK  179  A    between atoms: _436  and  _437
REMARK  180  A    between atoms: _443  and  _444
REMARK  181  A    between atoms: _449  and  _451
REMARK  182  A    between atoms: _451  and  _452
REMARK  183  A    between atoms: _451  and  _454
REMARK  184  A    between atoms: _454  and  _455
REMARK  185  A    between atoms: _455  and  _456
REMARK  186  A    between atoms: _459  and  _461
REMARK  187  A    between atoms: _461  and  _462
REMARK  188  A    between atoms: _461  and  _464
REMARK  189  A    between atoms: _464  and  _465
REMARK  190  A    between atoms: _465  and  _466
REMARK  191  A    between atoms: _466  and  _467
REMARK  192  A    between atoms: _476  and  _478
REMARK  193  A    between atoms: _478  and  _479
REMARK  194  A    between atoms: _478  and  _481
REMARK  195  A    between atoms: _481  and  _482
REMARK  196  A    between atoms: _485  and  _487
REMARK  197  A    between atoms: _487  and  _488
REMARK  198  A    between atoms: _491  and  _493
REMARK  199  A    between atoms: _493  and  _494
REMARK  200  A    between atoms: _493  and  _496
REMARK  201  A    between atoms: _496  and  _497
REMARK  202  A    between atoms: _499  and  _501
REMARK  203  A    between atoms: _501  and  _502
REMARK  204  A    between atoms: _501  and  _504
REMARK  205  A    between atoms: _504  and  _505
REMARK  206  A    between atoms: _510  and  _512
REMARK  207  A    between atoms: _512  and  _513
REMARK  208  A    between atoms: _512  and  _515
REMARK  209  A    between atoms: _515  and  _516
REMARK  210  A    between atoms: _519  and  _521
REMARK  211  A    between atoms: _521  and  _522
REMARK  212  A    between atoms: _521  and  _524
REMARK  213  A    between atoms: _524  and  _525
REMARK  214  A    between atoms: _528  and  _530
REMARK  215  A    between atoms: _530  and  _531
REMARK  216  A    between atoms: _530  and  _533
REMARK  217  A    between atoms: _533  and  _534
REMARK  218  A    between atoms: _540  and  _542
REMARK  219  A    between atoms: _542  and  _543
REMARK  220  A    between atoms: _542  and  _545
REMARK  221  A    between atoms: _545  and  _546
REMARK  222  A    between atoms: _546  and  _547
REMARK  223  A    between atoms: _547  and  _548
REMARK                            x       y       z     vdW  Elec       q    Type
REMARK                         _______ _______ _______ _____ _____    ______ ____
ROOT
ATOM      1  O   HOH     1       2.419  54.059  -3.198  0.00  0.00    +0.000 OA
ENDROOT
TORSDOF 0
REMARK  Name = ../refined-set-2016/2wzm/2wzm_pocket.pdb
REMARK  223 active torsions:
REMARK  status: ('A' for Active; 'I' for Inactive)
REMARK    1  A    between atoms: _1  and  _3
REMARK    2  A    between atoms: _3  and  _4
REMARK    3  A    between atoms: _6  and  _8
REMARK    4  A    between atoms: _8  and  _9
REMARK    5  A    between atoms: _8  and  _11
REMARK    6  A    between atoms: _11  and  _12
REMARK    7  A    between atoms: _15  and  _17
REMARK    8  A    between atoms: _17  and  _18
REMARK    9  A    between atoms: _20  and  _22
REMARK   10  A    between atoms: _22  and  _23
REMARK   11  A    between atoms: _22  and  _25
REMARK   12  A    between atoms: _28  and  _30
REMARK   13  A    between atoms: _30  and  _31
REMARK   14  A    between atoms: _33  and  _35
REMARK   15  A    between atoms: _35  and  _36
REMARK   16  A    between atoms: _35  and  _38
REMARK   17  A    between atoms: _38  and  _39
REMARK   18  A    between atoms: _39  and  _40
REMARK   19  A    between atoms: _43  and  _45
REMARK   20  A    between atoms: _45  and  _46
REMARK   21  A    between atoms: _45  and  _48
REMARK   22  A    between atoms: _48  and  _49
REMARK   23  A    between atoms: _52  and  _54
REMARK   24  A    between atoms: _54  and  _55
REMARK   25  A    between atoms: _54  and  _57
REMARK   26  A    between atoms: _57  and  _58
REMARK   27  A    between atoms: _58  and  _59
REMARK   28  A    between atoms: _62  and  _64
REMARK   29  A    between atoms: _64  and  _65
REMARK   30  A    between atoms: _64  and  _67
REMARK   31  A    between atoms: _67  and  _68
REMARK   32  A    between atoms: _68  and  _69
REMARK   33  A    between atoms: _69  and  _70
REMARK   34  A    between atoms: _79  and  _81
REMARK   35  A    between atoms: _81  and  _82
REMARK   36  A    between atoms: _81  and  _84
REMARK   37  A    between atoms: _84  and  _85
REMARK   38  A    between atoms: _87  and  _89
REMARK   39  A    between atoms: _89  and  _90
REMARK   40  A    between atoms: _89  and  _92
REMARK   41  A    between atoms: _92  and  _93
REMARK   42  A    between atoms: _98  and  _99
REMARK   43  A    between atoms: _101  and  _103
REMARK   44  A    between atoms: _103  and  _104
REMARK   45  A    between atoms: _103  and  _106
REMARK   46  A    between atoms: _106  and  _107
REMARK   47  A    between atoms: _110  and  _112
REMARK   48  A    between atoms: _112  and  _113
REMARK   49  A    between atoms: _112  and  _115
REMARK   50  A    between atoms: _115  and  _116
REMARK   51  A    between atoms: _119  and  _121
REMARK   52  A    between atoms: _121  and  _122
REMARK   53  A    between atoms: _121  and  _124
REMARK   54  A    between atoms: _124  and  _125
REMARK   55  A    between atoms: _130  and  _131
REMARK   56  A    between atoms: _133  and  _135
REMARK   57  A    between atoms: _135  and  _136
REMARK   58  A    between atoms: _135  and  _138
REMARK   59  A    between atoms: _138  and  _139
REMARK   60  A    between atoms: _144  and  _146
REMARK   61  A    between atoms: _146  and  _147
REMARK   62  A    between atoms: _146  and  _149
REMARK   63  A    between atoms: _149  and  _150
REMARK   64  A    between atoms: _150  and  _151
REMARK   65  A    between atoms: _151  and  _152
REMARK   66  A    between atoms: _152  and  _153
REMARK   67  A    between atoms: _157  and  _159
REMARK   68  A    between atoms: _159  and  _160
REMARK   69  A    between atoms: _159  and  _162
REMARK   70  A    between atoms: _162  and  _163
REMARK   71  A    between atoms: _168  and  _170
REMARK   72  A    between atoms: _170  and  _171
REMARK   73  A    between atoms: _170  and  _173
REMARK   74  A    between atoms: _173  and  _174
REMARK   75  A    between atoms: _179  and  _181
REMARK   76  A    between atoms: _181  and  _182
REMARK   77  A    between atoms: _181  and  _184
REMARK   78  A    between atoms: _184  and  _185
REMARK   79  A    between atoms: _185  and  _186
REMARK   80  A    between atoms: _191  and  _193
REMARK   81  A    between atoms: _193  and  _194
REMARK   82  A    between atoms: _193  and  _196
REMARK   83  A    between atoms: _196  and  _197
REMARK   84  A    between atoms: _200  and  _202
REMARK   85  A    between atoms: _202  and  _203
REMARK   86  A    between atoms: _202  and  _205
REMARK   87  A    between atoms: _205  and  _206
REMARK   88  A    between atoms: _206  and  _207
REMARK   89  A    between atoms: _210  and  _212
REMARK   90  A    between atoms: _212  and  _213
REMARK   91  A    between atoms: _212  and  _215
REMARK   92  A    between atoms: _215  and  _216
REMARK   93  A    between atoms: _219  and  _221
REMARK   94  A    between atoms: _221  and  _222
REMARK   95  A    between atoms: _221  and  _224
REMARK   96  A    between atoms: _224  and  _225
REMARK   97  A    between atoms: _230  and  _232
REMARK   98  A    between atoms: _232  and  _233
REMARK   99  A    between atoms: _236  and  _238
REMARK  100  A    between atoms: _238  and  _239
REMARK  101  A    between atoms: _238  and  _241
REMARK  102  A    between atoms: _241  and  _242
REMARK  103  A    between atoms: _247  and  _248
REMARK  104  A    between atoms: _250  and  _252
REMARK  105  A    between atoms: _252  and  _253
REMARK  106  A    between atoms: _256  and  _257
REMARK  107  A    between atoms: _262  and  _264
REMARK  108  A    between atoms: _264  and  _265
REMARK  109  A    between atoms: _264  and  _267
REMARK  110  A    between atoms: _267  and  _268
REMARK  111  A    between atoms: _271  and  _273
REMARK  112  A    between atoms: _273  and  _274
REMARK  113  A    between atoms: _276  and  _278
REMARK  114  A    between atoms: _278  and  _279
REMARK  115  A    between atoms: _278  and  _281
REMARK  116  A    between atoms: _284  and  _286
REMARK  117  A    between atoms: _286  and  _287
REMARK  118  A    between atoms: _289  and  _291
REMARK  119  A    between atoms: _291  and  _292
REMARK  120  A    between atoms: _291  and  _294
REMARK  121  A    between atoms: _294  and  _295
REMARK  122  A    between atoms: _295  and  _296
REMARK  123  A    between atoms: _296  and  _297
REMARK  124  A    between atoms: _306  and  _308
REMARK  125  A    between atoms: _308  and  _309
REMARK  126  A    between atoms: _308  and  _311
REMARK  127  A    between atoms: _311  and  _312
REMARK  128  A    between atoms: _315  and  _317
REMARK  129  A    between atoms: _317  and  _318
REMARK  130  A    between atoms: _317  and  _320
REMARK  131  A    between atoms: _320  and  _321
REMARK  132  A    between atoms: _324  and  _326
REMARK  133  A    between atoms: _326  and  _327
REMARK  134  A    between atoms: _326  and  _329
REMARK  135  A    between atoms: _329  and  _330
REMARK  136  A    between atoms: _333  and  _335
REMARK  137  A    between atoms: _335  and  _336
REMARK  138  A    between atoms: _339  and  _341
REMARK  139  A    between atoms: _341  and  _342
REMARK  140  A    between atoms: _345  and  _347
REMARK  141  A    between atoms: _347  and  _348
REMARK  142  A    between atoms: _347  and  _350
REMARK  143  A    between atoms: _350  and  _351
REMARK  144  A    between atoms: _351  and  _352
REMARK  145  A    between atoms: _357  and  _359
REMARK  146  A    between atoms: _359  and  _360
REMARK  147  A    between atoms: _359  and  _362
REMARK  148  A    between atoms: _362  and  _363
REMARK  149  A    between atoms: _366  and  _368
REMARK  150  A    between atoms: _368  and  _369
REMARK  151  A    between atoms: _368  and  _371
REMARK  152  A    between atoms: _371  and  _372
REMARK  153  A    between atoms: _375  and  _377
REMARK  154  A    between atoms: _377  and  _378
REMARK  155  A    between atoms: _377  and  _380
REMARK  156  A    between atoms: _383  and  _385
REMARK  157  A    between atoms: _385  and  _386
REMARK  158  A    between atoms: _385  and  _388
REMARK  159  A    between atoms: _388  and  _389
REMARK  160  A    between atoms: _392  and  _394
REMARK  161  A    between atoms: _394  and  _395
REMARK  162  A    between atoms: _394  and  _397
REMARK  163  A    between atoms: _397  and  _398
REMARK  164  A    between atoms: _400  and  _402
REMARK  165  A    between atoms: _402  and  _403
REMARK  166  A    between atoms: _402  and  _405
REMARK  167  A    between atoms: _405  and  _406
REMARK  168  A    between atoms: _406  and  _407
REMARK  169  A    between atoms: _407  and  _408
REMARK  170  A    between atoms: _417  and  _419
REMARK  171  A    between atoms: _419  and  _420
REMARK  172  A    between atoms: _419  and  _422
REMARK  173  A    between atoms: _422  and  _423
REMARK  174  A    between atoms: _425  and  _427
REMARK  175  A    between atoms: _427  and  _428
REMARK  176  A    between atoms: _431  and  _433
REMARK  177  A    between atoms: _433  and  _434
REMARK  178  A    between atoms: _433  and  _436
REMARK  179  A    between atoms: _436  and  _437
REMARK  180  A    between atoms: _443  and  _444
REMARK  181  A    between atoms: _449  and  _451
REMARK  182  A    between atoms: _451  and  _452
REMARK  183  A    between atoms: _451  and  _454
REMARK  184  A    between atoms: _454  and  _455
REMARK  185  A    between atoms: _455  and  _456
REMARK  186  A    between atoms: _459  and  _461
REMARK  187  A    between atoms: _461  and  _462
REMARK  188  A    between atoms: _461  and  _464
REMARK  189  A    between atoms: _464  and  _465
REMARK  190  A    between atoms: _465  and  _466
REMARK  191  A    between atoms: _466  and  _467
REMARK  192  A    between atoms: _476  and  _478
REMARK  193  A    between atoms: _478  and  _479
REMARK  194  A    between atoms: _478  and  _481
REMARK  195  A    between atoms: _481  and  _482
REMARK  196  A    between atoms: _485  and  _487
REMARK  197  A    between atoms: _487  and  _488
REMARK  198  A    between atoms: _491  and  _493
REMARK  199  A    between atoms: _493  and  _494
REMARK  200  A    between atoms: _493  and  _496
REMARK  201  A    between atoms: _496  and  _497
REMARK  202  A    between atoms: _499  and  _501
REMARK  203  A    between atoms: _501  and  _502
REMARK  204  A    between atoms: _501  and  _504
REMARK  205  A    between atoms: _504  and  _505
REMARK  206  A    between atoms: _510  and  _512
REMARK  207  A    between atoms: _512  and  _513
REMARK  208  A    between atoms: _512  and  _515
REMARK  209  A    between atoms: _515  and  _516
REMARK  210  A    between atoms: _519  and  _521
REMARK  211  A    between atoms: _521  and  _522
REMARK  212  A    between atoms: _521  and  _524
REMARK  213  A    between atoms: _524  and  _525
REMARK  214  A    between atoms: _528  and  _530
REMARK  215  A    between atoms: _530  and  _531
REMARK  216  A    between atoms: _530  and  _533
REMARK  217  A    between atoms: _533  and  _534
REMARK  218  A    between atoms: _540  and  _542
REMARK  219  A    between atoms: _542  and  _543
REMARK  220  A    between atoms: _542  and  _545
REMARK  221  A    between atoms: _545  and  _546
REMARK  222  A    between atoms: _546  and  _547
REMARK  223  A    between atoms: _547  and  _548
REMARK                            x       y       z     vdW  Elec       q    Type
REMARK                         _______ _______ _______ _____ _____    ______ ____
ROOT
ATOM      1  O   HOH     1      10.931  40.675 -12.158  0.00  0.00    +0.000 OA
ENDROOT
TORSDOF 0
REMARK  Name = ../refined-set-2016/2wzm/2wzm_pocket.pdb
REMARK  223 active torsions:
REMARK  status: ('A' for Active; 'I' for Inactive)
REMARK    1  A    between atoms: _1  and  _3
REMARK    2  A    between atoms: _3  and  _4
REMARK    3  A    between atoms: _6  and  _8
REMARK    4  A    between atoms: _8  and  _9
REMARK    5  A    between atoms: _8  and  _11
REMARK    6  A    between atoms: _11  and  _12
REMARK    7  A    between atoms: _15  and  _17
REMARK    8  A    between atoms: _17  and  _18
REMARK    9  A    between atoms: _20  and  _22
REMARK   10  A    between atoms: _22  and  _23
REMARK   11  A    between atoms: _22  and  _25
REMARK   12  A    between atoms: _28  and  _30
REMARK   13  A    between atoms: _30  and  _31
REMARK   14  A    between atoms: _33  and  _35
REMARK   15  A    between atoms: _35  and  _36
REMARK   16  A    between atoms: _35  and  _38
REMARK   17  A    between atoms: _38  and  _39
REMARK   18  A    between atoms: _39  and  _40
REMARK   19  A    between atoms: _43  and  _45
REMARK   20  A    between atoms: _45  and  _46
REMARK   21  A    between atoms: _45  and  _48
REMARK   22  A    between atoms: _48  and  _49
REMARK   23  A    between atoms: _52  and  _54
REMARK   24  A    between atoms: _54  and  _55
REMARK   25  A    between atoms: _54  and  _57
REMARK   26  A    between atoms: _57  and  _58
REMARK   27  A    between atoms: _58  and  _59
REMARK   28  A    between atoms: _62  and  _64
REMARK   29  A    between atoms: _64  and  _65
REMARK   30  A    between atoms: _64  and  _67
REMARK   31  A    between atoms: _67  and  _68
REMARK   32  A    between atoms: _68  and  _69
REMARK   33  A    between atoms: _69  and  _70
REMARK   34  A    between atoms: _79  and  _81
REMARK   35  A    between atoms: _81  and  _82
REMARK   36  A    between atoms: _81  and  _84
REMARK   37  A    between atoms: _84  and  _85
REMARK   38  A    between atoms: _87  and  _89
REMARK   39  A    between atoms: _89  and  _90
REMARK   40  A    between atoms: _89  and  _92
REMARK   41  A    between atoms: _92  and  _93
REMARK   42  A    between atoms: _98  and  _99
REMARK   43  A    between atoms: _101  and  _103
REMARK   44  A    between atoms: _103  and  _104
REMARK   45  A    between atoms: _103  and  _106
REMARK   46  A    between atoms: _106  and  _107
REMARK   47  A    between atoms: _110  and  _112
REMARK   48  A    between atoms: _112  and  _113
REMARK   49  A    between atoms: _112  and  _115
REMARK   50  A    between atoms: _115  and  _116
REMARK   51  A    between atoms: _119  and  _121
REMARK   52  A    between atoms: _121  and  _122
REMARK   53  A    between atoms: _121  and  _124
REMARK   54  A    between atoms: _124  and  _125
REMARK   55  A    between atoms: _130  and  _131
REMARK   56  A    between atoms: _133  and  _135
REMARK   57  A    between atoms: _135  and  _136
REMARK   58  A    between atoms: _135  and  _138
REMARK   59  A    between atoms: _138  and  _139
REMARK   60  A    between atoms: _144  and  _146
REMARK   61  A    between atoms: _146  and  _147
REMARK   62  A    between atoms: _146  and  _149
REMARK   63  A    between atoms: _149  and  _150
REMARK   64  A    between atoms: _150  and  _151
REMARK   65  A    between atoms: _151  and  _152
REMARK   66  A    between atoms: _152  and  _153
REMARK   67  A    between atoms: _157  and  _159
REMARK   68  A    between atoms: _159  and  _160
REMARK   69  A    between atoms: _159  and  _162
REMARK   70  A    between atoms: _162  and  _163
REMARK   71  A    between atoms: _168  and  _170
REMARK   72  A    between atoms: _170  and  _171
REMARK   73  A    between atoms: _170  and  _173
REMARK   74  A    between atoms: _173  and  _174
REMARK   75  A    between atoms: _179  and  _181
REMARK   76  A    between atoms: _181  and  _182
REMARK   77  A    between atoms: _181  and  _184
REMARK   78  A    between atoms: _184  and  _185
REMARK   79  A    between atoms: _185  and  _186
REMARK   80  A    between atoms: _191  and  _193
REMARK   81  A    between atoms: _193  and  _194
REMARK   82  A    between atoms: _193  and  _196
REMARK   83  A    between atoms: _196  and  _197
REMARK   84  A    between atoms: _200  and  _202
REMARK   85  A    between atoms: _202  and  _203
REMARK   86  A    between atoms: _202  and  _205
REMARK   87  A    between atoms: _205  and  _206
REMARK   88  A    between atoms: _206  and  _207
REMARK   89  A    between atoms: _210  and  _212
REMARK   90  A    between atoms: _212  and  _213
REMARK   91  A    between atoms: _212  and  _215
REMARK   92  A    between atoms: _215  and  _216
REMARK   93  A    between atoms: _219  and  _221
REMARK   94  A    between atoms: _221  and  _222
REMARK   95  A    between atoms: _221  and  _224
REMARK   96  A    between atoms: _224  and  _225
REMARK   97  A    between atoms: _230  and  _232
REMARK   98  A    between atoms: _232  and  _233
REMARK   99  A    between atoms: _236  and  _238
REMARK  100  A    between atoms: _238  and  _239
REMARK  101  A    between atoms: _238  and  _241
REMARK  102  A    between atoms: _241  and  _242
REMARK  103  A    between atoms: _247  and  _248
REMARK  104  A    between atoms: _250  and  _252
REMARK  105  A    between atoms: _252  and  _253
REMARK  106  A    between atoms: _256  and  _257
REMARK  107  A    between atoms: _262  and  _264
REMARK  108  A    between atoms: _264  and  _265
REMARK  109  A    between atoms: _264  and  _267
REMARK  110  A    between atoms: _267  and  _268
REMARK  111  A    between atoms: _271  and  _273
REMARK  112  A    between atoms: _273  and  _274
REMARK  113  A    between atoms: _276  and  _278
REMARK  114  A    between atoms: _278  and  _279
REMARK  115  A    between atoms: _278  and  _281
REMARK  116  A    between atoms: _284  and  _286
REMARK  117  A    between atoms: _286  and  _287
REMARK  118  A    between atoms: _289  and  _291
REMARK  119  A    between atoms: _291  and  _292
REMARK  120  A    between atoms: _291  and  _294
REMARK  121  A    between atoms: _294  and  _295
REMARK  122  A    between atoms: _295  and  _296
REMARK  123  A    between atoms: _296  and  _297
REMARK  124  A    between atoms: _306  and  _308
REMARK  125  A    between atoms: _308  and  _309
REMARK  126  A    between atoms: _308  and  _311
REMARK  127  A    between atoms: _311  and  _312
REMARK  128  A    between atoms: _315  and  _317
REMARK  129  A    between atoms: _317  and  _318
REMARK  130  A    between atoms: _317  and  _320
REMARK  131  A    between atoms: _320  and  _321
REMARK  132  A    between atoms: _324  and  _326
REMARK  133  A    between atoms: _326  and  _327
REMARK  134  A    between atoms: _326  and  _329
REMARK  135  A    between atoms: _329  and  _330
REMARK  136  A    between atoms: _333  and  _335
REMARK  137  A    between atoms: _335  and  _336
REMARK  138  A    between atoms: _339  and  _341
REMARK  139  A    between atoms: _341  and  _342
REMARK  140  A    between atoms: _345  and  _347
REMARK  141  A    between atoms: _347  and  _348
REMARK  142  A    between atoms: _347  and  _350
REMARK  143  A    between atoms: _350  and  _351
REMARK  144  A    between atoms: _351  and  _352
REMARK  145  A    between atoms: _357  and  _359
REMARK  146  A    between atoms: _359  and  _360
REMARK  147  A    between atoms: _359  and  _362
REMARK  148  A    between atoms: _362  and  _363
REMARK  149  A    between atoms: _366  and  _368
REMARK  150  A    between atoms: _368  and  _369
REMARK  151  A    between atoms: _368  and  _371
REMARK  152  A    between atoms: _371  and  _372
REMARK  153  A    between atoms: _375  and  _377
REMARK  154  A    between atoms: _377  and  _378
REMARK  155  A    between atoms: _377  and  _380
REMARK  156  A    between atoms: _383  and  _385
REMARK  157  A    between atoms: _385  and  _386
REMARK  158  A    between atoms: _385  and  _388
REMARK  159  A    between atoms: _388  and  _389
REMARK  160  A    between atoms: _392  and  _394
REMARK  161  A    between atoms: _394  and  _395
REMARK  162  A    between atoms: _394  and  _397
REMARK  163  A    between atoms: _397  and  _398
REMARK  164  A    between atoms: _400  and  _402
REMARK  165  A    between atoms: _402  and  _403
REMARK  166  A    between atoms: _402  and  _405
REMARK  167  A    between atoms: _405  and  _406
REMARK  168  A    between atoms: _406  and  _407
REMARK  169  A    between atoms: _407  and  _408
REMARK  170  A    between atoms: _417  and  _419
REMARK  171  A    between atoms: _419  and  _420
REMARK  172  A    between atoms: _419  and  _422
REMARK  173  A    between atoms: _422  and  _423
REMARK  174  A    between atoms: _425  and  _427
REMARK  175  A    between atoms: _427  and  _428
REMARK  176  A    between atoms: _431  and  _433
REMARK  177  A    between atoms: _433  and  _434
REMARK  178  A    between atoms: _433  and  _436
REMARK  179  A    between atoms: _436  and  _437
REMARK  180  A    between atoms: _443  and  _444
REMARK  181  A    between atoms: _449  and  _451
REMARK  182  A    between atoms: _451  and  _452
REMARK  183  A    between atoms: _451  and  _454
REMARK  184  A    between atoms: _454  and  _455
REMARK  185  A    between atoms: _455  and  _456
REMARK  186  A    between atoms: _459  and  _461
REMARK  187  A    between atoms: _461  and  _462
REMARK  188  A    between atoms: _461  and  _464
REMARK  189  A    between atoms: _464  and  _465
REMARK  190  A    between atoms: _465  and  _466
REMARK  191  A    between atoms: _466  and  _467
REMARK  192  A    between atoms: _476  and  _478
REMARK  193  A    between atoms: _478  and  _479
REMARK  194  A    between atoms: _478  and  _481
REMARK  195  A    between atoms: _481  and  _482
REMARK  196  A    between atoms: _485  and  _487
REMARK  197  A    between atoms: _487  and  _488
REMARK  198  A    between atoms: _491  and  _493
REMARK  199  A    between atoms: _493  and  _494
REMARK  200  A    between atoms: _493  and  _496
REMARK  201  A    between atoms: _496  and  _497
REMARK  202  A    between atoms: _499  and  _501
REMARK  203  A    between atoms: _501  and  _502
REMARK  204  A    between atoms: _501  and  _504
REMARK  205  A    between atoms: _504  and  _505
REMARK  206  A    between atoms: _510  and  _512
REMARK  207  A    between atoms: _512  and  _513
REMARK  208  A    between atoms: _512  and  _515
REMARK  209  A    between atoms: _515  and  _516
REMARK  210  A    between atoms: _519  and  _521
REMARK  211  A    between atoms: _521  and  _522
REMARK  212  A    between atoms: _521  and  _524
REMARK  213  A    between atoms: _524  and  _525
REMARK  214  A    between atoms: _528  and  _530
REMARK  215  A    between atoms: _530  and  _531
REMARK  216  A    between atoms: _530  and  _533
REMARK  217  A    between atoms: _533  and  _534
REMARK  218  A    between atoms: _540  and  _542
REMARK  219  A    between atoms: _542  and  _543
REMARK  220  A    between atoms: _542  and  _545
REMARK  221  A    between atoms: _545  and  _546
REMARK  222  A    between atoms: _546  and  _547
REMARK  223  A    between atoms: _547  and  _548
REMARK                            x       y       z     vdW  Elec       q    Type
REMARK                         _______ _______ _______ _____ _____    ______ ____
ROOT
ATOM      1  O   HOH     1       1.540  52.511  -5.503  0.00  0.00    +0.000 OA
ENDROOT
TORSDOF 0
REMARK  Name = ../refined-set-2016/2wzm/2wzm_pocket.pdb
REMARK  223 active torsions:
REMARK  status: ('A' for Active; 'I' for Inactive)
REMARK    1  A    between atoms: _1  and  _3
REMARK    2  A    between atoms: _3  and  _4
REMARK    3  A    between atoms: _6  and  _8
REMARK    4  A    between atoms: _8  and  _9
REMARK    5  A    between atoms: _8  and  _11
REMARK    6  A    between atoms: _11  and  _12
REMARK    7  A    between atoms: _15  and  _17
REMARK    8  A    between atoms: _17  and  _18
REMARK    9  A    between atoms: _20  and  _22
REMARK   10  A    between atoms: _22  and  _23
REMARK   11  A    between atoms: _22  and  _25
REMARK   12  A    between atoms: _28  and  _30
REMARK   13  A    between atoms: _30  and  _31
REMARK   14  A    between atoms: _33  and  _35
REMARK   15  A    between atoms: _35  and  _36
REMARK   16  A    between atoms: _35  and  _38
REMARK   17  A    between atoms: _38  and  _39
REMARK   18  A    between atoms: _39  and  _40
REMARK   19  A    between atoms: _43  and  _45
REMARK   20  A    between atoms: _45  and  _46
REMARK   21  A    between atoms: _45  and  _48
REMARK   22  A    between atoms: _48  and  _49
REMARK   23  A    between atoms: _52  and  _54
REMARK   24  A    between atoms: _54  and  _55
REMARK   25  A    between atoms: _54  and  _57
REMARK   26  A    between atoms: _57  and  _58
REMARK   27  A    between atoms: _58  and  _59
REMARK   28  A    between atoms: _62  and  _64
REMARK   29  A    between atoms: _64  and  _65
REMARK   30  A    between atoms: _64  and  _67
REMARK   31  A    between atoms: _67  and  _68
REMARK   32  A    between atoms: _68  and  _69
REMARK   33  A    between atoms: _69  and  _70
REMARK   34  A    between atoms: _79  and  _81
REMARK   35  A    between atoms: _81  and  _82
REMARK   36  A    between atoms: _81  and  _84
REMARK   37  A    between atoms: _84  and  _85
REMARK   38  A    between atoms: _87  and  _89
REMARK   39  A    between atoms: _89  and  _90
REMARK   40  A    between atoms: _89  and  _92
REMARK   41  A    between atoms: _92  and  _93
REMARK   42  A    between atoms: _98  and  _99
REMARK   43  A    between atoms: _101  and  _103
REMARK   44  A    between atoms: _103  and  _104
REMARK   45  A    between atoms: _103  and  _106
REMARK   46  A    between atoms: _106  and  _107
REMARK   47  A    between atoms: _110  and  _112
REMARK   48  A    between atoms: _112  and  _113
REMARK   49  A    between atoms: _112  and  _115
REMARK   50  A    between atoms: _115  and  _116
REMARK   51  A    between atoms: _119  and  _121
REMARK   52  A    between atoms: _121  and  _122
REMARK   53  A    between atoms: _121  and  _124
REMARK   54  A    between atoms: _124  and  _125
REMARK   55  A    between atoms: _130  and  _131
REMARK   56  A    between atoms: _133  and  _135
REMARK   57  A    between atoms: _135  and  _136
REMARK   58  A    between atoms: _135  and  _138
REMARK   59  A    between atoms: _138  and  _139
REMARK   60  A    between atoms: _144  and  _146
REMARK   61  A    between atoms: _146  and  _147
REMARK   62  A    between atoms: _146  and  _149
REMARK   63  A    between atoms: _149  and  _150
REMARK   64  A    between atoms: _150  and  _151
REMARK   65  A    between atoms: _151  and  _152
REMARK   66  A    between atoms: _152  and  _153
REMARK   67  A    between atoms: _157  and  _159
REMARK   68  A    between atoms: _159  and  _160
REMARK   69  A    between atoms: _159  and  _162
REMARK   70  A    between atoms: _162  and  _163
REMARK   71  A    between atoms: _168  and  _170
REMARK   72  A    between atoms: _170  and  _171
REMARK   73  A    between atoms: _170  and  _173
REMARK   74  A    between atoms: _173  and  _174
REMARK   75  A    between atoms: _179  and  _181
REMARK   76  A    between atoms: _181  and  _182
REMARK   77  A    between atoms: _181  and  _184
REMARK   78  A    between atoms: _184  and  _185
REMARK   79  A    between atoms: _185  and  _186
REMARK   80  A    between atoms: _191  and  _193
REMARK   81  A    between atoms: _193  and  _194
REMARK   82  A    between atoms: _193  and  _196
REMARK   83  A    between atoms: _196  and  _197
REMARK   84  A    between atoms: _200  and  _202
REMARK   85  A    between atoms: _202  and  _203
REMARK   86  A    between atoms: _202  and  _205
REMARK   87  A    between atoms: _205  and  _206
REMARK   88  A    between atoms: _206  and  _207
REMARK   89  A    between atoms: _210  and  _212
REMARK   90  A    between atoms: _212  and  _213
REMARK   91  A    between atoms: _212  and  _215
REMARK   92  A    between atoms: _215  and  _216
REMARK   93  A    between atoms: _219  and  _221
REMARK   94  A    between atoms: _221  and  _222
REMARK   95  A    between atoms: _221  and  _224
REMARK   96  A    between atoms: _224  and  _225
REMARK   97  A    between atoms: _230  and  _232
REMARK   98  A    between atoms: _232  and  _233
REMARK   99  A    between atoms: _236  and  _238
REMARK  100  A    between atoms: _238  and  _239
REMARK  101  A    between atoms: _238  and  _241
REMARK  102  A    between atoms: _241  and  _242
REMARK  103  A    between atoms: _247  and  _248
REMARK  104  A    between atoms: _250  and  _252
REMARK  105  A    between atoms: _252  and  _253
REMARK  106  A    between atoms: _256  and  _257
REMARK  107  A    between atoms: _262  and  _264
REMARK  108  A    between atoms: _264  and  _265
REMARK  109  A    between atoms: _264  and  _267
REMARK  110  A    between atoms: _267  and  _268
REMARK  111  A    between atoms: _271  and  _273
REMARK  112  A    between atoms: _273  and  _274
REMARK  113  A    between atoms: _276  and  _278
REMARK  114  A    between atoms: _278  and  _279
REMARK  115  A    between atoms: _278  and  _281
REMARK  116  A    between atoms: _284  and  _286
REMARK  117  A    between atoms: _286  and  _287
REMARK  118  A    between atoms: _289  and  _291
REMARK  119  A    between atoms: _291  and  _292
REMARK  120  A    between atoms: _291  and  _294
REMARK  121  A    between atoms: _294  and  _295
REMARK  122  A    between atoms: _295  and  _296
REMARK  123  A    between atoms: _296  and  _297
REMARK  124  A    between atoms: _306  and  _308
REMARK  125  A    between atoms: _308  and  _309
REMARK  126  A    between atoms: _308  and  _311
REMARK  127  A    between atoms: _311  and  _312
REMARK  128  A    between atoms: _315  and  _317
REMARK  129  A    between atoms: _317  and  _318
REMARK  130  A    between atoms: _317  and  _320
REMARK  131  A    between atoms: _320  and  _321
REMARK  132  A    between atoms: _324  and  _326
REMARK  133  A    between atoms: _326  and  _327
REMARK  134  A    between atoms: _326  and  _329
REMARK  135  A    between atoms: _329  and  _330
REMARK  136  A    between atoms: _333  and  _335
REMARK  137  A    between atoms: _335  and  _336
REMARK  138  A    between atoms: _339  and  _341
REMARK  139  A    between atoms: _341  and  _342
REMARK  140  A    between atoms: _345  and  _347
REMARK  141  A    between atoms: _347  and  _348
REMARK  142  A    between atoms: _347  and  _350
REMARK  143  A    between atoms: _350  and  _351
REMARK  144  A    between atoms: _351  and  _352
REMARK  145  A    between atoms: _357  and  _359
REMARK  146  A    between atoms: _359  and  _360
REMARK  147  A    between atoms: _359  and  _362
REMARK  148  A    between atoms: _362  and  _363
REMARK  149  A    between atoms: _366  and  _368
REMARK  150  A    between atoms: _368  and  _369
REMARK  151  A    between atoms: _368  and  _371
REMARK  152  A    between atoms: _371  and  _372
REMARK  153  A    between atoms: _375  and  _377
REMARK  154  A    between atoms: _377  and  _378
REMARK  155  A    between atoms: _377  and  _380
REMARK  156  A    between atoms: _383  and  _385
REMARK  157  A    between atoms: _385  and  _386
REMARK  158  A    between atoms: _385  and  _388
REMARK  159  A    between atoms: _388  and  _389
REMARK  160  A    between atoms: _392  and  _394
REMARK  161  A    between atoms: _394  and  _395
REMARK  162  A    between atoms: _394  and  _397
REMARK  163  A    between atoms: _397  and  _398
REMARK  164  A    between atoms: _400  and  _402
REMARK  165  A    between atoms: _402  and  _403
REMARK  166  A    between atoms: _402  and  _405
REMARK  167  A    between atoms: _405  and  _406
REMARK  168  A    between atoms: _406  and  _407
REMARK  169  A    between atoms: _407  and  _408
REMARK  170  A    between atoms: _417  and  _419
REMARK  171  A    between atoms: _419  and  _420
REMARK  172  A    between atoms: _419  and  _422
REMARK  173  A    between atoms: _422  and  _423
REMARK  174  A    between atoms: _425  and  _427
REMARK  175  A    between atoms: _427  and  _428
REMARK  176  A    between atoms: _431  and  _433
REMARK  177  A    between atoms: _433  and  _434
REMARK  178  A    between atoms: _433  and  _436
REMARK  179  A    between atoms: _436  and  _437
REMARK  180  A    between atoms: _443  and  _444
REMARK  181  A    between atoms: _449  and  _451
REMARK  182  A    between atoms: _451  and  _452
REMARK  183  A    between atoms: _451  and  _454
REMARK  184  A    between atoms: _454  and  _455
REMARK  185  A    between atoms: _455  and  _456
REMARK  186  A    between atoms: _459  and  _461
REMARK  187  A    between atoms: _461  and  _462
REMARK  188  A    between atoms: _461  and  _464
REMARK  189  A    between atoms: _464  and  _465
REMARK  190  A    between atoms: _465  and  _466
REMARK  191  A    between atoms: _466  and  _467
REMARK  192  A    between atoms: _476  and  _478
REMARK  193  A    between atoms: _478  and  _479
REMARK  194  A    between atoms: _478  and  _481
REMARK  195  A    between atoms: _481  and  _482
REMARK  196  A    between atoms: _485  and  _487
REMARK  197  A    between atoms: _487  and  _488
REMARK  198  A    between atoms: _491  and  _493
REMARK  199  A    between atoms: _493  and  _494
REMARK  200  A    between atoms: _493  and  _496
REMARK  201  A    between atoms: _496  and  _497
REMARK  202  A    between atoms: _499  and  _501
REMARK  203  A    between atoms: _501  and  _502
REMARK  204  A    between atoms: _501  and  _504
REMARK  205  A    between atoms: _504  and  _505
REMARK  206  A    between atoms: _510  and  _512
REMARK  207  A    between atoms: _512  and  _513
REMARK  208  A    between atoms: _512  and  _515
REMARK  209  A    between atoms: _515  and  _516
REMARK  210  A    between atoms: _519  and  _521
REMARK  211  A    between atoms: _521  and  _522
REMARK  212  A    between atoms: _521  and  _524
REMARK  213  A    between atoms: _524  and  _525
REMARK  214  A    between atoms: _528  and  _530
REMARK  215  A    between atoms: _530  and  _531
REMARK  216  A    between atoms: _530  and  _533
REMARK  217  A    between atoms: _533  and  _534
REMARK  218  A    between atoms: _540  and  _542
REMARK  219  A    between atoms: _542  and  _543
REMARK  220  A    between atoms: _542  and  _545
REMARK  221  A    between atoms: _545  and  _546
REMARK  222  A    between atoms: _546  and  _547
REMARK  223  A    between atoms: _547  and  _548
REMARK                            x       y       z     vdW  Elec       q    Type
REMARK                         _______ _______ _______ _____ _____    ______ ____
ROOT
ATOM      1  O   HOH     1       2.683  43.517 -15.562  0.00  0.00    +0.000 OA
ENDROOT
TORSDOF 0
REMARK  Name = ../refined-set-2016/2wzm/2wzm_pocket.pdb
REMARK  223 active torsions:
REMARK  status: ('A' for Active; 'I' for Inactive)
REMARK    1  A    between atoms: _1  and  _3
REMARK    2  A    between atoms: _3  and  _4
REMARK    3  A    between atoms: _6  and  _8
REMARK    4  A    between atoms: _8  and  _9
REMARK    5  A    between atoms: _8  and  _11
REMARK    6  A    between atoms: _11  and  _12
REMARK    7  A    between atoms: _15  and  _17
REMARK    8  A    between atoms: _17  and  _18
REMARK    9  A    between atoms: _20  and  _22
REMARK   10  A    between atoms: _22  and  _23
REMARK   11  A    between atoms: _22  and  _25
REMARK   12  A    between atoms: _28  and  _30
REMARK   13  A    between atoms: _30  and  _31
REMARK   14  A    between atoms: _33  and  _35
REMARK   15  A    between atoms: _35  and  _36
REMARK   16  A    between atoms: _35  and  _38
REMARK   17  A    between atoms: _38  and  _39
REMARK   18  A    between atoms: _39  and  _40
REMARK   19  A    between atoms: _43  and  _45
REMARK   20  A    between atoms: _45  and  _46
REMARK   21  A    between atoms: _45  and  _48
REMARK   22  A    between atoms: _48  and  _49
REMARK   23  A    between atoms: _52  and  _54
REMARK   24  A    between atoms: _54  and  _55
REMARK   25  A    between atoms: _54  and  _57
REMARK   26  A    between atoms: _57  and  _58
REMARK   27  A    between atoms: _58  and  _59
REMARK   28  A    between atoms: _62  and  _64
REMARK   29  A    between atoms: _64  and  _65
REMARK   30  A    between atoms: _64  and  _67
REMARK   31  A    between atoms: _67  and  _68
REMARK   32  A    between atoms: _68  and  _69
REMARK   33  A    between atoms: _69  and  _70
REMARK   34  A    between atoms: _79  and  _81
REMARK   35  A    between atoms: _81  and  _82
REMARK   36  A    between atoms: _81  and  _84
REMARK   37  A    between atoms: _84  and  _85
REMARK   38  A    between atoms: _87  and  _89
REMARK   39  A    between atoms: _89  and  _90
REMARK   40  A    between atoms: _89  and  _92
REMARK   41  A    between atoms: _92  and  _93
REMARK   42  A    between atoms: _98  and  _99
REMARK   43  A    between atoms: _101  and  _103
REMARK   44  A    between atoms: _103  and  _104
REMARK   45  A    between atoms: _103  and  _106
REMARK   46  A    between atoms: _106  and  _107
REMARK   47  A    between atoms: _110  and  _112
REMARK   48  A    between atoms: _112  and  _113
REMARK   49  A    between atoms: _112  and  _115
REMARK   50  A    between atoms: _115  and  _116
REMARK   51  A    between atoms: _119  and  _121
REMARK   52  A    between atoms: _121  and  _122
REMARK   53  A    between atoms: _121  and  _124
REMARK   54  A    between atoms: _124  and  _125
REMARK   55  A    between atoms: _130  and  _131
REMARK   56  A    between atoms: _133  and  _135
REMARK   57  A    between atoms: _135  and  _136
REMARK   58  A    between atoms: _135  and  _138
REMARK   59  A    between atoms: _138  and  _139
REMARK   60  A    between atoms: _144  and  _146
REMARK   61  A    between atoms: _146  and  _147
REMARK   62  A    between atoms: _146  and  _149
REMARK   63  A    between atoms: _149  and  _150
REMARK   64  A    between atoms: _150  and  _151
REMARK   65  A    between atoms: _151  and  _152
REMARK   66  A    between atoms: _152  and  _153
REMARK   67  A    between atoms: _157  and  _159
REMARK   68  A    between atoms: _159  and  _160
REMARK   69  A    between atoms: _159  and  _162
REMARK   70  A    between atoms: _162  and  _163
REMARK   71  A    between atoms: _168  and  _170
REMARK   72  A    between atoms: _170  and  _171
REMARK   73  A    between atoms: _170  and  _173
REMARK   74  A    between atoms: _173  and  _174
REMARK   75  A    between atoms: _179  and  _181
REMARK   76  A    between atoms: _181  and  _182
REMARK   77  A    between atoms: _181  and  _184
REMARK   78  A    between atoms: _184  and  _185
REMARK   79  A    between atoms: _185  and  _186
REMARK   80  A    between atoms: _191  and  _193
REMARK   81  A    between atoms: _193  and  _194
REMARK   82  A    between atoms: _193  and  _196
REMARK   83  A    between atoms: _196  and  _197
REMARK   84  A    between atoms: _200  and  _202
REMARK   85  A    between atoms: _202  and  _203
REMARK   86  A    between atoms: _202  and  _205
REMARK   87  A    between atoms: _205  and  _206
REMARK   88  A    between atoms: _206  and  _207
REMARK   89  A    between atoms: _210  and  _212
REMARK   90  A    between atoms: _212  and  _213
REMARK   91  A    between atoms: _212  and  _215
REMARK   92  A    between atoms: _215  and  _216
REMARK   93  A    between atoms: _219  and  _221
REMARK   94  A    between atoms: _221  and  _222
REMARK   95  A    between atoms: _221  and  _224
REMARK   96  A    between atoms: _224  and  _225
REMARK   97  A    between atoms: _230  and  _232
REMARK   98  A    between atoms: _232  and  _233
REMARK   99  A    between atoms: _236  and  _238
REMARK  100  A    between atoms: _238  and  _239
REMARK  101  A    between atoms: _238  and  _241
REMARK  102  A    between atoms: _241  and  _242
REMARK  103  A    between atoms: _247  and  _248
REMARK  104  A    between atoms: _250  and  _252
REMARK  105  A    between atoms: _252  and  _253
REMARK  106  A    between atoms: _256  and  _257
REMARK  107  A    between atoms: _262  and  _264
REMARK  108  A    between atoms: _264  and  _265
REMARK  109  A    between atoms: _264  and  _267
REMARK  110  A    between atoms: _267  and  _268
REMARK  111  A    between atoms: _271  and  _273
REMARK  112  A    between atoms: _273  and  _274
REMARK  113  A    between atoms: _276  and  _278
REMARK  114  A    between atoms: _278  and  _279
REMARK  115  A    between atoms: _278  and  _281
REMARK  116  A    between atoms: _284  and  _286
REMARK  117  A    between atoms: _286  and  _287
REMARK  118  A    between atoms: _289  and  _291
REMARK  119  A    between atoms: _291  and  _292
REMARK  120  A    between atoms: _291  and  _294
REMARK  121  A    between atoms: _294  and  _295
REMARK  122  A    between atoms: _295  and  _296
REMARK  123  A    between atoms: _296  and  _297
REMARK  124  A    between atoms: _306  and  _308
REMARK  125  A    between atoms: _308  and  _309
REMARK  126  A    between atoms: _308  and  _311
REMARK  127  A    between atoms: _311  and  _312
REMARK  128  A    between atoms: _315  and  _317
REMARK  129  A    between atoms: _317  and  _318
REMARK  130  A    between atoms: _317  and  _320
REMARK  131  A    between atoms: _320  and  _321
REMARK  132  A    between atoms: _324  and  _326
REMARK  133  A    between atoms: _326  and  _327
REMARK  134  A    between atoms: _326  and  _329
REMARK  135  A    between atoms: _329  and  _330
REMARK  136  A    between atoms: _333  and  _335
REMARK  137  A    between atoms: _335  and  _336
REMARK  138  A    between atoms: _339  and  _341
REMARK  139  A    between atoms: _341  and  _342
REMARK  140  A    between atoms: _345  and  _347
REMARK  141  A    between atoms: _347  and  _348
REMARK  142  A    between atoms: _347  and  _350
REMARK  143  A    between atoms: _350  and  _351
REMARK  144  A    between atoms: _351  and  _352
REMARK  145  A    between atoms: _357  and  _359
REMARK  146  A    between atoms: _359  and  _360
REMARK  147  A    between atoms: _359  and  _362
REMARK  148  A    between atoms: _362  and  _363
REMARK  149  A    between atoms: _366  and  _368
REMARK  150  A    between atoms: _368  and  _369
REMARK  151  A    between atoms: _368  and  _371
REMARK  152  A    between atoms: _371  and  _372
REMARK  153  A    between atoms: _375  and  _377
REMARK  154  A    between atoms: _377  and  _378
REMARK  155  A    between atoms: _377  and  _380
REMARK  156  A    between atoms: _383  and  _385
REMARK  157  A    between atoms: _385  and  _386
REMARK  158  A    between atoms: _385  and  _388
REMARK  159  A    between atoms: _388  and  _389
REMARK  160  A    between atoms: _392  and  _394
REMARK  161  A    between atoms: _394  and  _395
REMARK  162  A    between atoms: _394  and  _397
REMARK  163  A    between atoms: _397  and  _398
REMARK  164  A    between atoms: _400  and  _402
REMARK  165  A    between atoms: _402  and  _403
REMARK  166  A    between atoms: _402  and  _405
REMARK  167  A    between atoms: _405  and  _406
REMARK  168  A    between atoms: _406  and  _407
REMARK  169  A    between atoms: _407  and  _408
REMARK  170  A    between atoms: _417  and  _419
REMARK  171  A    between atoms: _419  and  _420
REMARK  172  A    between atoms: _419  and  _422
REMARK  173  A    between atoms: _422  and  _423
REMARK  174  A    between atoms: _425  and  _427
REMARK  175  A    between atoms: _427  and  _428
REMARK  176  A    between atoms: _431  and  _433
REMARK  177  A    between atoms: _433  and  _434
REMARK  178  A    between atoms: _433  and  _436
REMARK  179  A    between atoms: _436  and  _437
REMARK  180  A    between atoms: _443  and  _444
REMARK  181  A    between atoms: _449  and  _451
REMARK  182  A    between atoms: _451  and  _452
REMARK  183  A    between atoms: _451  and  _454
REMARK  184  A    between atoms: _454  and  _455
REMARK  185  A    between atoms: _455  and  _456
REMARK  186  A    between atoms: _459  and  _461
REMARK  187  A    between atoms: _461  and  _462
REMARK  188  A    between atoms: _461  and  _464
REMARK  189  A    between atoms: _464  and  _465
REMARK  190  A    between atoms: _465  and  _466
REMARK  191  A    between atoms: _466  and  _467
REMARK  192  A    between atoms: _476  and  _478
REMARK  193  A    between atoms: _478  and  _479
REMARK  194  A    between atoms: _478  and  _481
REMARK  195  A    between atoms: _481  and  _482
REMARK  196  A    between atoms: _485  and  _487
REMARK  197  A    between atoms: _487  and  _488
REMARK  198  A    between atoms: _491  and  _493
REMARK  199  A    between atoms: _493  and  _494
REMARK  200  A    between atoms: _493  and  _496
REMARK  201  A    between atoms: _496  and  _497
REMARK  202  A    between atoms: _499  and  _501
REMARK  203  A    between atoms: _501  and  _502
REMARK  204  A    between atoms: _501  and  _504
REMARK  205  A    between atoms: _504  and  _505
REMARK  206  A    between atoms: _510  and  _512
REMARK  207  A    between atoms: _512  and  _513
REMARK  208  A    between atoms: _512  and  _515
REMARK  209  A    between atoms: _515  and  _516
REMARK  210  A    between atoms: _519  and  _521
REMARK  211  A    between atoms: _521  and  _522
REMARK  212  A    between atoms: _521  and  _524
REMARK  213  A    between atoms: _524  and  _525
REMARK  214  A    between atoms: _528  and  _530
REMARK  215  A    between atoms: _530  and  _531
REMARK  216  A    between atoms: _530  and  _533
REMARK  217  A    between atoms: _533  and  _534
REMARK  218  A    between atoms: _540  and  _542
REMARK  219  A    between atoms: _542  and  _543
REMARK  220  A    between atoms: _542  and  _545
REMARK  221  A    between atoms: _545  and  _546
REMARK  222  A    between atoms: _546  and  _547
REMARK  223  A    between atoms: _547  and  _548
REMARK                            x       y       z     vdW  Elec       q    Type
REMARK                         _______ _______ _______ _____ _____    ______ ____
ROOT
ATOM      1  O   HOH     1       3.950  46.100 -17.144  0.00  0.00    +0.000 OA
ENDROOT
TORSDOF 0
REMARK  Name = ../refined-set-2016/2wzm/2wzm_pocket.pdb
REMARK  223 active torsions:
REMARK  status: ('A' for Active; 'I' for Inactive)
REMARK    1  A    between atoms: _1  and  _3
REMARK    2  A    between atoms: _3  and  _4
REMARK    3  A    between atoms: _6  and  _8
REMARK    4  A    between atoms: _8  and  _9
REMARK    5  A    between atoms: _8  and  _11
REMARK    6  A    between atoms: _11  and  _12
REMARK    7  A    between atoms: _15  and  _17
REMARK    8  A    between atoms: _17  and  _18
REMARK    9  A    between atoms: _20  and  _22
REMARK   10  A    between atoms: _22  and  _23
REMARK   11  A    between atoms: _22  and  _25
REMARK   12  A    between atoms: _28  and  _30
REMARK   13  A    between atoms: _30  and  _31
REMARK   14  A    between atoms: _33  and  _35
REMARK   15  A    between atoms: _35  and  _36
REMARK   16  A    between atoms: _35  and  _38
REMARK   17  A    between atoms: _38  and  _39
REMARK   18  A    between atoms: _39  and  _40
REMARK   19  A    between atoms: _43  and  _45
REMARK   20  A    between atoms: _45  and  _46
REMARK   21  A    between atoms: _45  and  _48
REMARK   22  A    between atoms: _48  and  _49
REMARK   23  A    between atoms: _52  and  _54
REMARK   24  A    between atoms: _54  and  _55
REMARK   25  A    between atoms: _54  and  _57
REMARK   26  A    between atoms: _57  and  _58
REMARK   27  A    between atoms: _58  and  _59
REMARK   28  A    between atoms: _62  and  _64
REMARK   29  A    between atoms: _64  and  _65
REMARK   30  A    between atoms: _64  and  _67
REMARK   31  A    between atoms: _67  and  _68
REMARK   32  A    between atoms: _68  and  _69
REMARK   33  A    between atoms: _69  and  _70
REMARK   34  A    between atoms: _79  and  _81
REMARK   35  A    between atoms: _81  and  _82
REMARK   36  A    between atoms: _81  and  _84
REMARK   37  A    between atoms: _84  and  _85
REMARK   38  A    between atoms: _87  and  _89
REMARK   39  A    between atoms: _89  and  _90
REMARK   40  A    between atoms: _89  and  _92
REMARK   41  A    between atoms: _92  and  _93
REMARK   42  A    between atoms: _98  and  _99
REMARK   43  A    between atoms: _101  and  _103
REMARK   44  A    between atoms: _103  and  _104
REMARK   45  A    between atoms: _103  and  _106
REMARK   46  A    between atoms: _106  and  _107
REMARK   47  A    between atoms: _110  and  _112
REMARK   48  A    between atoms: _112  and  _113
REMARK   49  A    between atoms: _112  and  _115
REMARK   50  A    between atoms: _115  and  _116
REMARK   51  A    between atoms: _119  and  _121
REMARK   52  A    between atoms: _121  and  _122
REMARK   53  A    between atoms: _121  and  _124
REMARK   54  A    between atoms: _124  and  _125
REMARK   55  A    between atoms: _130  and  _131
REMARK   56  A    between atoms: _133  and  _135
REMARK   57  A    between atoms: _135  and  _136
REMARK   58  A    between atoms: _135  and  _138
REMARK   59  A    between atoms: _138  and  _139
REMARK   60  A    between atoms: _144  and  _146
REMARK   61  A    between atoms: _146  and  _147
REMARK   62  A    between atoms: _146  and  _149
REMARK   63  A    between atoms: _149  and  _150
REMARK   64  A    between atoms: _150  and  _151
REMARK   65  A    between atoms: _151  and  _152
REMARK   66  A    between atoms: _152  and  _153
REMARK   67  A    between atoms: _157  and  _159
REMARK   68  A    between atoms: _159  and  _160
REMARK   69  A    between atoms: _159  and  _162
REMARK   70  A    between atoms: _162  and  _163
REMARK   71  A    between atoms: _168  and  _170
REMARK   72  A    between atoms: _170  and  _171
REMARK   73  A    between atoms: _170  and  _173
REMARK   74  A    between atoms: _173  and  _174
REMARK   75  A    between atoms: _179  and  _181
REMARK   76  A    between atoms: _181  and  _182
REMARK   77  A    between atoms: _181  and  _184
REMARK   78  A    between atoms: _184  and  _185
REMARK   79  A    between atoms: _185  and  _186
REMARK   80  A    between atoms: _191  and  _193
REMARK   81  A    between atoms: _193  and  _194
REMARK   82  A    between atoms: _193  and  _196
REMARK   83  A    between atoms: _196  and  _197
REMARK   84  A    between atoms: _200  and  _202
REMARK   85  A    between atoms: _202  and  _203
REMARK   86  A    between atoms: _202  and  _205
REMARK   87  A    between atoms: _205  and  _206
REMARK   88  A    between atoms: _206  and  _207
REMARK   89  A    between atoms: _210  and  _212
REMARK   90  A    between atoms: _212  and  _213
REMARK   91  A    between atoms: _212  and  _215
REMARK   92  A    between atoms: _215  and  _216
REMARK   93  A    between atoms: _219  and  _221
REMARK   94  A    between atoms: _221  and  _222
REMARK   95  A    between atoms: _221  and  _224
REMARK   96  A    between atoms: _224  and  _225
REMARK   97  A    between atoms: _230  and  _232
REMARK   98  A    between atoms: _232  and  _233
REMARK   99  A    between atoms: _236  and  _238
REMARK  100  A    between atoms: _238  and  _239
REMARK  101  A    between atoms: _238  and  _241
REMARK  102  A    between atoms: _241  and  _242
REMARK  103  A    between atoms: _247  and  _248
REMARK  104  A    between atoms: _250  and  _252
REMARK  105  A    between atoms: _252  and  _253
REMARK  106  A    between atoms: _256  and  _257
REMARK  107  A    between atoms: _262  and  _264
REMARK  108  A    between atoms: _264  and  _265
REMARK  109  A    between atoms: _264  and  _267
REMARK  110  A    between atoms: _267  and  _268
REMARK  111  A    between atoms: _271  and  _273
REMARK  112  A    between atoms: _273  and  _274
REMARK  113  A    between atoms: _276  and  _278
REMARK  114  A    between atoms: _278  and  _279
REMARK  115  A    between atoms: _278  and  _281
REMARK  116  A    between atoms: _284  and  _286
REMARK  117  A    between atoms: _286  and  _287
REMARK  118  A    between atoms: _289  and  _291
REMARK  119  A    between atoms: _291  and  _292
REMARK  120  A    between atoms: _291  and  _294
REMARK  121  A    between atoms: _294  and  _295
REMARK  122  A    between atoms: _295  and  _296
REMARK  123  A    between atoms: _296  and  _297
REMARK  124  A    between atoms: _306  and  _308
REMARK  125  A    between atoms: _308  and  _309
REMARK  126  A    between atoms: _308  and  _311
REMARK  127  A    between atoms: _311  and  _312
REMARK  128  A    between atoms: _315  and  _317
REMARK  129  A    between atoms: _317  and  _318
REMARK  130  A    between atoms: _317  and  _320
REMARK  131  A    between atoms: _320  and  _321
REMARK  132  A    between atoms: _324  and  _326
REMARK  133  A    between atoms: _326  and  _327
REMARK  134  A    between atoms: _326  and  _329
REMARK  135  A    between atoms: _329  and  _330
REMARK  136  A    between atoms: _333  and  _335
REMARK  137  A    between atoms: _335  and  _336
REMARK  138  A    between atoms: _339  and  _341
REMARK  139  A    between atoms: _341  and  _342
REMARK  140  A    between atoms: _345  and  _347
REMARK  141  A    between atoms: _347  and  _348
REMARK  142  A    between atoms: _347  and  _350
REMARK  143  A    between atoms: _350  and  _351
REMARK  144  A    between atoms: _351  and  _352
REMARK  145  A    between atoms: _357  and  _359
REMARK  146  A    between atoms: _359  and  _360
REMARK  147  A    between atoms: _359  and  _362
REMARK  148  A    between atoms: _362  and  _363
REMARK  149  A    between atoms: _366  and  _368
REMARK  150  A    between atoms: _368  and  _369
REMARK  151  A    between atoms: _368  and  _371
REMARK  152  A    between atoms: _371  and  _372
REMARK  153  A    between atoms: _375  and  _377
REMARK  154  A    between atoms: _377  and  _378
REMARK  155  A    between atoms: _377  and  _380
REMARK  156  A    between atoms: _383  and  _385
REMARK  157  A    between atoms: _385  and  _386
REMARK  158  A    between atoms: _385  and  _388
REMARK  159  A    between atoms: _388  and  _389
REMARK  160  A    between atoms: _392  and  _394
REMARK  161  A    between atoms: _394  and  _395
REMARK  162  A    between atoms: _394  and  _397
REMARK  163  A    between atoms: _397  and  _398
REMARK  164  A    between atoms: _400  and  _402
REMARK  165  A    between atoms: _402  and  _403
REMARK  166  A    between atoms: _402  and  _405
REMARK  167  A    between atoms: _405  and  _406
REMARK  168  A    between atoms: _406  and  _407
REMARK  169  A    between atoms: _407  and  _408
REMARK  170  A    between atoms: _417  and  _419
REMARK  171  A    between atoms: _419  and  _420
REMARK  172  A    between atoms: _419  and  _422
REMARK  173  A    between atoms: _422  and  _423
REMARK  174  A    between atoms: _425  and  _427
REMARK  175  A    between atoms: _427  and  _428
REMARK  176  A    between atoms: _431  and  _433
REMARK  177  A    between atoms: _433  and  _434
REMARK  178  A    between atoms: _433  and  _436
REMARK  179  A    between atoms: _436  and  _437
REMARK  180  A    between atoms: _443  and  _444
REMARK  181  A    between atoms: _449  and  _451
REMARK  182  A    between atoms: _451  and  _452
REMARK  183  A    between atoms: _451  and  _454
REMARK  184  A    between atoms: _454  and  _455
REMARK  185  A    between atoms: _455  and  _456
REMARK  186  A    between atoms: _459  and  _461
REMARK  187  A    between atoms: _461  and  _462
REMARK  188  A    between atoms: _461  and  _464
REMARK  189  A    between atoms: _464  and  _465
REMARK  190  A    between atoms: _465  and  _466
REMARK  191  A    between atoms: _466  and  _467
REMARK  192  A    between atoms: _476  and  _478
REMARK  193  A    between atoms: _478  and  _479
REMARK  194  A    between atoms: _478  and  _481
REMARK  195  A    between atoms: _481  and  _482
REMARK  196  A    between atoms: _485  and  _487
REMARK  197  A    between atoms: _487  and  _488
REMARK  198  A    between atoms: _491  and  _493
REMARK  199  A    between atoms: _493  and  _494
REMARK  200  A    between atoms: _493  and  _496
REMARK  201  A    between atoms: _496  and  _497
REMARK  202  A    between atoms: _499  and  _501
REMARK  203  A    between atoms: _501  and  _502
REMARK  204  A    between atoms: _501  and  _504
REMARK  205  A    between atoms: _504  and  _505
REMARK  206  A    between atoms: _510  and  _512
REMARK  207  A    between atoms: _512  and  _513
REMARK  208  A    between atoms: _512  and  _515
REMARK  209  A    between atoms: _515  and  _516
REMARK  210  A    between atoms: _519  and  _521
REMARK  211  A    between atoms: _521  and  _522
REMARK  212  A    between atoms: _521  and  _524
REMARK  213  A    between atoms: _524  and  _525
REMARK  214  A    between atoms: _528  and  _530
REMARK  215  A    between atoms: _530  and  _531
REMARK  216  A    between atoms: _530  and  _533
REMARK  217  A    between atoms: _533  and  _534
REMARK  218  A    between atoms: _540  and  _542
REMARK  219  A    between atoms: _542  and  _543
REMARK  220  A    between atoms: _542  and  _545
REMARK  221  A    between atoms: _545  and  _546
REMARK  222  A    between atoms: _546  and  _547
REMARK  223  A    between atoms: _547  and  _548
REMARK                            x       y       z     vdW  Elec       q    Type
REMARK                         _______ _______ _______ _____ _____    ______ ____
ROOT
ATOM      1  O   HOH     1       5.973  46.481 -14.386  0.00  0.00    +0.000 OA
ENDROOT
TORSDOF 0
REMARK  Name = ../refined-set-2016/2wzm/2wzm_pocket.pdb
REMARK  223 active torsions:
REMARK  status: ('A' for Active; 'I' for Inactive)
REMARK    1  A    between atoms: _1  and  _3
REMARK    2  A    between atoms: _3  and  _4
REMARK    3  A    between atoms: _6  and  _8
REMARK    4  A    between atoms: _8  and  _9
REMARK    5  A    between atoms: _8  and  _11
REMARK    6  A    between atoms: _11  and  _12
REMARK    7  A    between atoms: _15  and  _17
REMARK    8  A    between atoms: _17  and  _18
REMARK    9  A    between atoms: _20  and  _22
REMARK   10  A    between atoms: _22  and  _23
REMARK   11  A    between atoms: _22  and  _25
REMARK   12  A    between atoms: _28  and  _30
REMARK   13  A    between atoms: _30  and  _31
REMARK   14  A    between atoms: _33  and  _35
REMARK   15  A    between atoms: _35  and  _36
REMARK   16  A    between atoms: _35  and  _38
REMARK   17  A    between atoms: _38  and  _39
REMARK   18  A    between atoms: _39  and  _40
REMARK   19  A    between atoms: _43  and  _45
REMARK   20  A    between atoms: _45  and  _46
REMARK   21  A    between atoms: _45  and  _48
REMARK   22  A    between atoms: _48  and  _49
REMARK   23  A    between atoms: _52  and  _54
REMARK   24  A    between atoms: _54  and  _55
REMARK   25  A    between atoms: _54  and  _57
REMARK   26  A    between atoms: _57  and  _58
REMARK   27  A    between atoms: _58  and  _59
REMARK   28  A    between atoms: _62  and  _64
REMARK   29  A    between atoms: _64  and  _65
REMARK   30  A    between atoms: _64  and  _67
REMARK   31  A    between atoms: _67  and  _68
REMARK   32  A    between atoms: _68  and  _69
REMARK   33  A    between atoms: _69  and  _70
REMARK   34  A    between atoms: _79  and  _81
REMARK   35  A    between atoms: _81  and  _82
REMARK   36  A    between atoms: _81  and  _84
REMARK   37  A    between atoms: _84  and  _85
REMARK   38  A    between atoms: _87  and  _89
REMARK   39  A    between atoms: _89  and  _90
REMARK   40  A    between atoms: _89  and  _92
REMARK   41  A    between atoms: _92  and  _93
REMARK   42  A    between atoms: _98  and  _99
REMARK   43  A    between atoms: _101  and  _103
REMARK   44  A    between atoms: _103  and  _104
REMARK   45  A    between atoms: _103  and  _106
REMARK   46  A    between atoms: _106  and  _107
REMARK   47  A    between atoms: _110  and  _112
REMARK   48  A    between atoms: _112  and  _113
REMARK   49  A    between atoms: _112  and  _115
REMARK   50  A    between atoms: _115  and  _116
REMARK   51  A    between atoms: _119  and  _121
REMARK   52  A    between atoms: _121  and  _122
REMARK   53  A    between atoms: _121  and  _124
REMARK   54  A    between atoms: _124  and  _125
REMARK   55  A    between atoms: _130  and  _131
REMARK   56  A    between atoms: _133  and  _135
REMARK   57  A    between atoms: _135  and  _136
REMARK   58  A    between atoms: _135  and  _138
REMARK   59  A    between atoms: _138  and  _139
REMARK   60  A    between atoms: _144  and  _146
REMARK   61  A    between atoms: _146  and  _147
REMARK   62  A    between atoms: _146  and  _149
REMARK   63  A    between atoms: _149  and  _150
REMARK   64  A    between atoms: _150  and  _151
REMARK   65  A    between atoms: _151  and  _152
REMARK   66  A    between atoms: _152  and  _153
REMARK   67  A    between atoms: _157  and  _159
REMARK   68  A    between atoms: _159  and  _160
REMARK   69  A    between atoms: _159  and  _162
REMARK   70  A    between atoms: _162  and  _163
REMARK   71  A    between atoms: _168  and  _170
REMARK   72  A    between atoms: _170  and  _171
REMARK   73  A    between atoms: _170  and  _173
REMARK   74  A    between atoms: _173  and  _174
REMARK   75  A    between atoms: _179  and  _181
REMARK   76  A    between atoms: _181  and  _182
REMARK   77  A    between atoms: _181  and  _184
REMARK   78  A    between atoms: _184  and  _185
REMARK   79  A    between atoms: _185  and  _186
REMARK   80  A    between atoms: _191  and  _193
REMARK   81  A    between atoms: _193  and  _194
REMARK   82  A    between atoms: _193  and  _196
REMARK   83  A    between atoms: _196  and  _197
REMARK   84  A    between atoms: _200  and  _202
REMARK   85  A    between atoms: _202  and  _203
REMARK   86  A    between atoms: _202  and  _205
REMARK   87  A    between atoms: _205  and  _206
REMARK   88  A    between atoms: _206  and  _207
REMARK   89  A    between atoms: _210  and  _212
REMARK   90  A    between atoms: _212  and  _213
REMARK   91  A    between atoms: _212  and  _215
REMARK   92  A    between atoms: _215  and  _216
REMARK   93  A    between atoms: _219  and  _221
REMARK   94  A    between atoms: _221  and  _222
REMARK   95  A    between atoms: _221  and  _224
REMARK   96  A    between atoms: _224  and  _225
REMARK   97  A    between atoms: _230  and  _232
REMARK   98  A    between atoms: _232  and  _233
REMARK   99  A    between atoms: _236  and  _238
REMARK  100  A    between atoms: _238  and  _239
REMARK  101  A    between atoms: _238  and  _241
REMARK  102  A    between atoms: _241  and  _242
REMARK  103  A    between atoms: _247  and  _248
REMARK  104  A    between atoms: _250  and  _252
REMARK  105  A    between atoms: _252  and  _253
REMARK  106  A    between atoms: _256  and  _257
REMARK  107  A    between atoms: _262  and  _264
REMARK  108  A    between atoms: _264  and  _265
REMARK  109  A    between atoms: _264  and  _267
REMARK  110  A    between atoms: _267  and  _268
REMARK  111  A    between atoms: _271  and  _273
REMARK  112  A    between atoms: _273  and  _274
REMARK  113  A    between atoms: _276  and  _278
REMARK  114  A    between atoms: _278  and  _279
REMARK  115  A    between atoms: _278  and  _281
REMARK  116  A    between atoms: _284  and  _286
REMARK  117  A    between atoms: _286  and  _287
REMARK  118  A    between atoms: _289  and  _291
REMARK  119  A    between atoms: _291  and  _292
REMARK  120  A    between atoms: _291  and  _294
REMARK  121  A    between atoms: _294  and  _295
REMARK  122  A    between atoms: _295  and  _296
REMARK  123  A    between atoms: _296  and  _297
REMARK  124  A    between atoms: _306  and  _308
REMARK  125  A    between atoms: _308  and  _309
REMARK  126  A    between atoms: _308  and  _311
REMARK  127  A    between atoms: _311  and  _312
REMARK  128  A    between atoms: _315  and  _317
REMARK  129  A    between atoms: _317  and  _318
REMARK  130  A    between atoms: _317  and  _320
REMARK  131  A    between atoms: _320  and  _321
REMARK  132  A    between atoms: _324  and  _326
REMARK  133  A    between atoms: _326  and  _327
REMARK  134  A    between atoms: _326  and  _329
REMARK  135  A    between atoms: _329  and  _330
REMARK  136  A    between atoms: _333  and  _335
REMARK  137  A    between atoms: _335  and  _336
REMARK  138  A    between atoms: _339  and  _341
REMARK  139  A    between atoms: _341  and  _342
REMARK  140  A    between atoms: _345  and  _347
REMARK  141  A    between atoms: _347  and  _348
REMARK  142  A    between atoms: _347  and  _350
REMARK  143  A    between atoms: _350  and  _351
REMARK  144  A    between atoms: _351  and  _352
REMARK  145  A    between atoms: _357  and  _359
REMARK  146  A    between atoms: _359  and  _360
REMARK  147  A    between atoms: _359  and  _362
REMARK  148  A    between atoms: _362  and  _363
REMARK  149  A    between atoms: _366  and  _368
REMARK  150  A    between atoms: _368  and  _369
REMARK  151  A    between atoms: _368  and  _371
REMARK  152  A    between atoms: _371  and  _372
REMARK  153  A    between atoms: _375  and  _377
REMARK  154  A    between atoms: _377  and  _378
REMARK  155  A    between atoms: _377  and  _380
REMARK  156  A    between atoms: _383  and  _385
REMARK  157  A    between atoms: _385  and  _386
REMARK  158  A    between atoms: _385  and  _388
REMARK  159  A    between atoms: _388  and  _389
REMARK  160  A    between atoms: _392  and  _394
REMARK  161  A    between atoms: _394  and  _395
REMARK  162  A    between atoms: _394  and  _397
REMARK  163  A    between atoms: _397  and  _398
REMARK  164  A    between atoms: _400  and  _402
REMARK  165  A    between atoms: _402  and  _403
REMARK  166  A    between atoms: _402  and  _405
REMARK  167  A    between atoms: _405  and  _406
REMARK  168  A    between atoms: _406  and  _407
REMARK  169  A    between atoms: _407  and  _408
REMARK  170  A    between atoms: _417  and  _419
REMARK  171  A    between atoms: _419  and  _420
REMARK  172  A    between atoms: _419  and  _422
REMARK  173  A    between atoms: _422  and  _423
REMARK  174  A    between atoms: _425  and  _427
REMARK  175  A    between atoms: _427  and  _428
REMARK  176  A    between atoms: _431  and  _433
REMARK  177  A    between atoms: _433  and  _434
REMARK  178  A    between atoms: _433  and  _436
REMARK  179  A    between atoms: _436  and  _437
REMARK  180  A    between atoms: _443  and  _444
REMARK  181  A    between atoms: _449  and  _451
REMARK  182  A    between atoms: _451  and  _452
REMARK  183  A    between atoms: _451  and  _454
REMARK  184  A    between atoms: _454  and  _455
REMARK  185  A    between atoms: _455  and  _456
REMARK  186  A    between atoms: _459  and  _461
REMARK  187  A    between atoms: _461  and  _462
REMARK  188  A    between atoms: _461  and  _464
REMARK  189  A    between atoms: _464  and  _465
REMARK  190  A    between atoms: _465  and  _466
REMARK  191  A    between atoms: _466  and  _467
REMARK  192  A    between atoms: _476  and  _478
REMARK  193  A    between atoms: _478  and  _479
REMARK  194  A    between atoms: _478  and  _481
REMARK  195  A    between atoms: _481  and  _482
REMARK  196  A    between atoms: _485  and  _487
REMARK  197  A    between atoms: _487  and  _488
REMARK  198  A    between atoms: _491  and  _493
REMARK  199  A    between atoms: _493  and  _494
REMARK  200  A    between atoms: _493  and  _496
REMARK  201  A    between atoms: _496  and  _497
REMARK  202  A    between atoms: _499  and  _501
REMARK  203  A    between atoms: _501  and  _502
REMARK  204  A    between atoms: _501  and  _504
REMARK  205  A    between atoms: _504  and  _505
REMARK  206  A    between atoms: _510  and  _512
REMARK  207  A    between atoms: _512  and  _513
REMARK  208  A    between atoms: _512  and  _515
REMARK  209  A    between atoms: _515  and  _516
REMARK  210  A    between atoms: _519  and  _521
REMARK  211  A    between atoms: _521  and  _522
REMARK  212  A    between atoms: _521  and  _524
REMARK  213  A    between atoms: _524  and  _525
REMARK  214  A    between atoms: _528  and  _530
REMARK  215  A    between atoms: _530  and  _531
REMARK  216  A    between atoms: _530  and  _533
REMARK  217  A    between atoms: _533  and  _534
REMARK  218  A    between atoms: _540  and  _542
REMARK  219  A    between atoms: _542  and  _543
REMARK  220  A    between atoms: _542  and  _545
REMARK  221  A    between atoms: _545  and  _546
REMARK  222  A    between atoms: _546  and  _547
REMARK  223  A    between atoms: _547  and  _548
REMARK                            x       y       z     vdW  Elec       q    Type
REMARK                         _______ _______ _______ _____ _____    ______ ____
ROOT
ATOM      1  O   HOH     1      18.206  40.848 -10.880  0.00  0.00    +0.000 OA
ENDROOT
TORSDOF 0
REMARK  Name = ../refined-set-2016/2wzm/2wzm_pocket.pdb
REMARK  223 active torsions:
REMARK  status: ('A' for Active; 'I' for Inactive)
REMARK    1  A    between atoms: _1  and  _3
REMARK    2  A    between atoms: _3  and  _4
REMARK    3  A    between atoms: _6  and  _8
REMARK    4  A    between atoms: _8  and  _9
REMARK    5  A    between atoms: _8  and  _11
REMARK    6  A    between atoms: _11  and  _12
REMARK    7  A    between atoms: _15  and  _17
REMARK    8  A    between atoms: _17  and  _18
REMARK    9  A    between atoms: _20  and  _22
REMARK   10  A    between atoms: _22  and  _23
REMARK   11  A    between atoms: _22  and  _25
REMARK   12  A    between atoms: _28  and  _30
REMARK   13  A    between atoms: _30  and  _31
REMARK   14  A    between atoms: _33  and  _35
REMARK   15  A    between atoms: _35  and  _36
REMARK   16  A    between atoms: _35  and  _38
REMARK   17  A    between atoms: _38  and  _39
REMARK   18  A    between atoms: _39  and  _40
REMARK   19  A    between atoms: _43  and  _45
REMARK   20  A    between atoms: _45  and  _46
REMARK   21  A    between atoms: _45  and  _48
REMARK   22  A    between atoms: _48  and  _49
REMARK   23  A    between atoms: _52  and  _54
REMARK   24  A    between atoms: _54  and  _55
REMARK   25  A    between atoms: _54  and  _57
REMARK   26  A    between atoms: _57  and  _58
REMARK   27  A    between atoms: _58  and  _59
REMARK   28  A    between atoms: _62  and  _64
REMARK   29  A    between atoms: _64  and  _65
REMARK   30  A    between atoms: _64  and  _67
REMARK   31  A    between atoms: _67  and  _68
REMARK   32  A    between atoms: _68  and  _69
REMARK   33  A    between atoms: _69  and  _70
REMARK   34  A    between atoms: _79  and  _81
REMARK   35  A    between atoms: _81  and  _82
REMARK   36  A    between atoms: _81  and  _84
REMARK   37  A    between atoms: _84  and  _85
REMARK   38  A    between atoms: _87  and  _89
REMARK   39  A    between atoms: _89  and  _90
REMARK   40  A    between atoms: _89  and  _92
REMARK   41  A    between atoms: _92  and  _93
REMARK   42  A    between atoms: _98  and  _99
REMARK   43  A    between atoms: _101  and  _103
REMARK   44  A    between atoms: _103  and  _104
REMARK   45  A    between atoms: _103  and  _106
REMARK   46  A    between atoms: _106  and  _107
REMARK   47  A    between atoms: _110  and  _112
REMARK   48  A    between atoms: _112  and  _113
REMARK   49  A    between atoms: _112  and  _115
REMARK   50  A    between atoms: _115  and  _116
REMARK   51  A    between atoms: _119  and  _121
REMARK   52  A    between atoms: _121  and  _122
REMARK   53  A    between atoms: _121  and  _124
REMARK   54  A    between atoms: _124  and  _125
REMARK   55  A    between atoms: _130  and  _131
REMARK   56  A    between atoms: _133  and  _135
REMARK   57  A    between atoms: _135  and  _136
REMARK   58  A    between atoms: _135  and  _138
REMARK   59  A    between atoms: _138  and  _139
REMARK   60  A    between atoms: _144  and  _146
REMARK   61  A    between atoms: _146  and  _147
REMARK   62  A    between atoms: _146  and  _149
REMARK   63  A    between atoms: _149  and  _150
REMARK   64  A    between atoms: _150  and  _151
REMARK   65  A    between atoms: _151  and  _152
REMARK   66  A    between atoms: _152  and  _153
REMARK   67  A    between atoms: _157  and  _159
REMARK   68  A    between atoms: _159  and  _160
REMARK   69  A    between atoms: _159  and  _162
REMARK   70  A    between atoms: _162  and  _163
REMARK   71  A    between atoms: _168  and  _170
REMARK   72  A    between atoms: _170  and  _171
REMARK   73  A    between atoms: _170  and  _173
REMARK   74  A    between atoms: _173  and  _174
REMARK   75  A    between atoms: _179  and  _181
REMARK   76  A    between atoms: _181  and  _182
REMARK   77  A    between atoms: _181  and  _184
REMARK   78  A    between atoms: _184  and  _185
REMARK   79  A    between atoms: _185  and  _186
REMARK   80  A    between atoms: _191  and  _193
REMARK   81  A    between atoms: _193  and  _194
REMARK   82  A    between atoms: _193  and  _196
REMARK   83  A    between atoms: _196  and  _197
REMARK   84  A    between atoms: _200  and  _202
REMARK   85  A    between atoms: _202  and  _203
REMARK   86  A    between atoms: _202  and  _205
REMARK   87  A    between atoms: _205  and  _206
REMARK   88  A    between atoms: _206  and  _207
REMARK   89  A    between atoms: _210  and  _212
REMARK   90  A    between atoms: _212  and  _213
REMARK   91  A    between atoms: _212  and  _215
REMARK   92  A    between atoms: _215  and  _216
REMARK   93  A    between atoms: _219  and  _221
REMARK   94  A    between atoms: _221  and  _222
REMARK   95  A    between atoms: _221  and  _224
REMARK   96  A    between atoms: _224  and  _225
REMARK   97  A    between atoms: _230  and  _232
REMARK   98  A    between atoms: _232  and  _233
REMARK   99  A    between atoms: _236  and  _238
REMARK  100  A    between atoms: _238  and  _239
REMARK  101  A    between atoms: _238  and  _241
REMARK  102  A    between atoms: _241  and  _242
REMARK  103  A    between atoms: _247  and  _248
REMARK  104  A    between atoms: _250  and  _252
REMARK  105  A    between atoms: _252  and  _253
REMARK  106  A    between atoms: _256  and  _257
REMARK  107  A    between atoms: _262  and  _264
REMARK  108  A    between atoms: _264  and  _265
REMARK  109  A    between atoms: _264  and  _267
REMARK  110  A    between atoms: _267  and  _268
REMARK  111  A    between atoms: _271  and  _273
REMARK  112  A    between atoms: _273  and  _274
REMARK  113  A    between atoms: _276  and  _278
REMARK  114  A    between atoms: _278  and  _279
REMARK  115  A    between atoms: _278  and  _281
REMARK  116  A    between atoms: _284  and  _286
REMARK  117  A    between atoms: _286  and  _287
REMARK  118  A    between atoms: _289  and  _291
REMARK  119  A    between atoms: _291  and  _292
REMARK  120  A    between atoms: _291  and  _294
REMARK  121  A    between atoms: _294  and  _295
REMARK  122  A    between atoms: _295  and  _296
REMARK  123  A    between atoms: _296  and  _297
REMARK  124  A    between atoms: _306  and  _308
REMARK  125  A    between atoms: _308  and  _309
REMARK  126  A    between atoms: _308  and  _311
REMARK  127  A    between atoms: _311  and  _312
REMARK  128  A    between atoms: _315  and  _317
REMARK  129  A    between atoms: _317  and  _318
REMARK  130  A    between atoms: _317  and  _320
REMARK  131  A    between atoms: _320  and  _321
REMARK  132  A    between atoms: _324  and  _326
REMARK  133  A    between atoms: _326  and  _327
REMARK  134  A    between atoms: _326  and  _329
REMARK  135  A    between atoms: _329  and  _330
REMARK  136  A    between atoms: _333  and  _335
REMARK  137  A    between atoms: _335  and  _336
REMARK  138  A    between atoms: _339  and  _341
REMARK  139  A    between atoms: _341  and  _342
REMARK  140  A    between atoms: _345  and  _347
REMARK  141  A    between atoms: _347  and  _348
REMARK  142  A    between atoms: _347  and  _350
REMARK  143  A    between atoms: _350  and  _351
REMARK  144  A    between atoms: _351  and  _352
REMARK  145  A    between atoms: _357  and  _359
REMARK  146  A    between atoms: _359  and  _360
REMARK  147  A    between atoms: _359  and  _362
REMARK  148  A    between atoms: _362  and  _363
REMARK  149  A    between atoms: _366  and  _368
REMARK  150  A    between atoms: _368  and  _369
REMARK  151  A    between atoms: _368  and  _371
REMARK  152  A    between atoms: _371  and  _372
REMARK  153  A    between atoms: _375  and  _377
REMARK  154  A    between atoms: _377  and  _378
REMARK  155  A    between atoms: _377  and  _380
REMARK  156  A    between atoms: _383  and  _385
REMARK  157  A    between atoms: _385  and  _386
REMARK  158  A    between atoms: _385  and  _388
REMARK  159  A    between atoms: _388  and  _389
REMARK  160  A    between atoms: _392  and  _394
REMARK  161  A    between atoms: _394  and  _395
REMARK  162  A    between atoms: _394  and  _397
REMARK  163  A    between atoms: _397  and  _398
REMARK  164  A    between atoms: _400  and  _402
REMARK  165  A    between atoms: _402  and  _403
REMARK  166  A    between atoms: _402  and  _405
REMARK  167  A    between atoms: _405  and  _406
REMARK  168  A    between atoms: _406  and  _407
REMARK  169  A    between atoms: _407  and  _408
REMARK  170  A    between atoms: _417  and  _419
REMARK  171  A    between atoms: _419  and  _420
REMARK  172  A    between atoms: _419  and  _422
REMARK  173  A    between atoms: _422  and  _423
REMARK  174  A    between atoms: _425  and  _427
REMARK  175  A    between atoms: _427  and  _428
REMARK  176  A    between atoms: _431  and  _433
REMARK  177  A    between atoms: _433  and  _434
REMARK  178  A    between atoms: _433  and  _436
REMARK  179  A    between atoms: _436  and  _437
REMARK  180  A    between atoms: _443  and  _444
REMARK  181  A    between atoms: _449  and  _451
REMARK  182  A    between atoms: _451  and  _452
REMARK  183  A    between atoms: _451  and  _454
REMARK  184  A    between atoms: _454  and  _455
REMARK  185  A    between atoms: _455  and  _456
REMARK  186  A    between atoms: _459  and  _461
REMARK  187  A    between atoms: _461  and  _462
REMARK  188  A    between atoms: _461  and  _464
REMARK  189  A    between atoms: _464  and  _465
REMARK  190  A    between atoms: _465  and  _466
REMARK  191  A    between atoms: _466  and  _467
REMARK  192  A    between atoms: _476  and  _478
REMARK  193  A    between atoms: _478  and  _479
REMARK  194  A    between atoms: _478  and  _481
REMARK  195  A    between atoms: _481  and  _482
REMARK  196  A    between atoms: _485  and  _487
REMARK  197  A    between atoms: _487  and  _488
REMARK  198  A    between atoms: _491  and  _493
REMARK  199  A    between atoms: _493  and  _494
REMARK  200  A    between atoms: _493  and  _496
REMARK  201  A    between atoms: _496  and  _497
REMARK  202  A    between atoms: _499  and  _501
REMARK  203  A    between atoms: _501  and  _502
REMARK  204  A    between atoms: _501  and  _504
REMARK  205  A    between atoms: _504  and  _505
REMARK  206  A    between atoms: _510  and  _512
REMARK  207  A    between atoms: _512  and  _513
REMARK  208  A    between atoms: _512  and  _515
REMARK  209  A    between atoms: _515  and  _516
REMARK  210  A    between atoms: _519  and  _521
REMARK  211  A    between atoms: _521  and  _522
REMARK  212  A    between atoms: _521  and  _524
REMARK  213  A    between atoms: _524  and  _525
REMARK  214  A    between atoms: _528  and  _530
REMARK  215  A    between atoms: _530  and  _531
REMARK  216  A    between atoms: _530  and  _533
REMARK  217  A    between atoms: _533  and  _534
REMARK  218  A    between atoms: _540  and  _542
REMARK  219  A    between atoms: _542  and  _543
REMARK  220  A    between atoms: _542  and  _545
REMARK  221  A    between atoms: _545  and  _546
REMARK  222  A    between atoms: _546  and  _547
REMARK  223  A    between atoms: _547  and  _548
REMARK                            x       y       z     vdW  Elec       q    Type
REMARK                         _______ _______ _______ _____ _____    ______ ____
ROOT
ATOM      1  O   HOH     1      16.742  40.434 -14.991  0.00  0.00    +0.000 OA
ENDROOT
TORSDOF 0
REMARK  Name = ../refined-set-2016/2wzm/2wzm_pocket.pdb
REMARK  223 active torsions:
REMARK  status: ('A' for Active; 'I' for Inactive)
REMARK    1  A    between atoms: _1  and  _3
REMARK    2  A    between atoms: _3  and  _4
REMARK    3  A    between atoms: _6  and  _8
REMARK    4  A    between atoms: _8  and  _9
REMARK    5  A    between atoms: _8  and  _11
REMARK    6  A    between atoms: _11  and  _12
REMARK    7  A    between atoms: _15  and  _17
REMARK    8  A    between atoms: _17  and  _18
REMARK    9  A    between atoms: _20  and  _22
REMARK   10  A    between atoms: _22  and  _23
REMARK   11  A    between atoms: _22  and  _25
REMARK   12  A    between atoms: _28  and  _30
REMARK   13  A    between atoms: _30  and  _31
REMARK   14  A    between atoms: _33  and  _35
REMARK   15  A    between atoms: _35  and  _36
REMARK   16  A    between atoms: _35  and  _38
REMARK   17  A    between atoms: _38  and  _39
REMARK   18  A    between atoms: _39  and  _40
REMARK   19  A    between atoms: _43  and  _45
REMARK   20  A    between atoms: _45  and  _46
REMARK   21  A    between atoms: _45  and  _48
REMARK   22  A    between atoms: _48  and  _49
REMARK   23  A    between atoms: _52  and  _54
REMARK   24  A    between atoms: _54  and  _55
REMARK   25  A    between atoms: _54  and  _57
REMARK   26  A    between atoms: _57  and  _58
REMARK   27  A    between atoms: _58  and  _59
REMARK   28  A    between atoms: _62  and  _64
REMARK   29  A    between atoms: _64  and  _65
REMARK   30  A    between atoms: _64  and  _67
REMARK   31  A    between atoms: _67  and  _68
REMARK   32  A    between atoms: _68  and  _69
REMARK   33  A    between atoms: _69  and  _70
REMARK   34  A    between atoms: _79  and  _81
REMARK   35  A    between atoms: _81  and  _82
REMARK   36  A    between atoms: _81  and  _84
REMARK   37  A    between atoms: _84  and  _85
REMARK   38  A    between atoms: _87  and  _89
REMARK   39  A    between atoms: _89  and  _90
REMARK   40  A    between atoms: _89  and  _92
REMARK   41  A    between atoms: _92  and  _93
REMARK   42  A    between atoms: _98  and  _99
REMARK   43  A    between atoms: _101  and  _103
REMARK   44  A    between atoms: _103  and  _104
REMARK   45  A    between atoms: _103  and  _106
REMARK   46  A    between atoms: _106  and  _107
REMARK   47  A    between atoms: _110  and  _112
REMARK   48  A    between atoms: _112  and  _113
REMARK   49  A    between atoms: _112  and  _115
REMARK   50  A    between atoms: _115  and  _116
REMARK   51  A    between atoms: _119  and  _121
REMARK   52  A    between atoms: _121  and  _122
REMARK   53  A    between atoms: _121  and  _124
REMARK   54  A    between atoms: _124  and  _125
REMARK   55  A    between atoms: _130  and  _131
REMARK   56  A    between atoms: _133  and  _135
REMARK   57  A    between atoms: _135  and  _136
REMARK   58  A    between atoms: _135  and  _138
REMARK   59  A    between atoms: _138  and  _139
REMARK   60  A    between atoms: _144  and  _146
REMARK   61  A    between atoms: _146  and  _147
REMARK   62  A    between atoms: _146  and  _149
REMARK   63  A    between atoms: _149  and  _150
REMARK   64  A    between atoms: _150  and  _151
REMARK   65  A    between atoms: _151  and  _152
REMARK   66  A    between atoms: _152  and  _153
REMARK   67  A    between atoms: _157  and  _159
REMARK   68  A    between atoms: _159  and  _160
REMARK   69  A    between atoms: _159  and  _162
REMARK   70  A    between atoms: _162  and  _163
REMARK   71  A    between atoms: _168  and  _170
REMARK   72  A    between atoms: _170  and  _171
REMARK   73  A    between atoms: _170  and  _173
REMARK   74  A    between atoms: _173  and  _174
REMARK   75  A    between atoms: _179  and  _181
REMARK   76  A    between atoms: _181  and  _182
REMARK   77  A    between atoms: _181  and  _184
REMARK   78  A    between atoms: _184  and  _185
REMARK   79  A    between atoms: _185  and  _186
REMARK   80  A    between atoms: _191  and  _193
REMARK   81  A    between atoms: _193  and  _194
REMARK   82  A    between atoms: _193  and  _196
REMARK   83  A    between atoms: _196  and  _197
REMARK   84  A    between atoms: _200  and  _202
REMARK   85  A    between atoms: _202  and  _203
REMARK   86  A    between atoms: _202  and  _205
REMARK   87  A    between atoms: _205  and  _206
REMARK   88  A    between atoms: _206  and  _207
REMARK   89  A    between atoms: _210  and  _212
REMARK   90  A    between atoms: _212  and  _213
REMARK   91  A    between atoms: _212  and  _215
REMARK   92  A    between atoms: _215  and  _216
REMARK   93  A    between atoms: _219  and  _221
REMARK   94  A    between atoms: _221  and  _222
REMARK   95  A    between atoms: _221  and  _224
REMARK   96  A    between atoms: _224  and  _225
REMARK   97  A    between atoms: _230  and  _232
REMARK   98  A    between atoms: _232  and  _233
REMARK   99  A    between atoms: _236  and  _238
REMARK  100  A    between atoms: _238  and  _239
REMARK  101  A    between atoms: _238  and  _241
REMARK  102  A    between atoms: _241  and  _242
REMARK  103  A    between atoms: _247  and  _248
REMARK  104  A    between atoms: _250  and  _252
REMARK  105  A    between atoms: _252  and  _253
REMARK  106  A    between atoms: _256  and  _257
REMARK  107  A    between atoms: _262  and  _264
REMARK  108  A    between atoms: _264  and  _265
REMARK  109  A    between atoms: _264  and  _267
REMARK  110  A    between atoms: _267  and  _268
REMARK  111  A    between atoms: _271  and  _273
REMARK  112  A    between atoms: _273  and  _274
REMARK  113  A    between atoms: _276  and  _278
REMARK  114  A    between atoms: _278  and  _279
REMARK  115  A    between atoms: _278  and  _281
REMARK  116  A    between atoms: _284  and  _286
REMARK  117  A    between atoms: _286  and  _287
REMARK  118  A    between atoms: _289  and  _291
REMARK  119  A    between atoms: _291  and  _292
REMARK  120  A    between atoms: _291  and  _294
REMARK  121  A    between atoms: _294  and  _295
REMARK  122  A    between atoms: _295  and  _296
REMARK  123  A    between atoms: _296  and  _297
REMARK  124  A    between atoms: _306  and  _308
REMARK  125  A    between atoms: _308  and  _309
REMARK  126  A    between atoms: _308  and  _311
REMARK  127  A    between atoms: _311  and  _312
REMARK  128  A    between atoms: _315  and  _317
REMARK  129  A    between atoms: _317  and  _318
REMARK  130  A    between atoms: _317  and  _320
REMARK  131  A    between atoms: _320  and  _321
REMARK  132  A    between atoms: _324  and  _326
REMARK  133  A    between atoms: _326  and  _327
REMARK  134  A    between atoms: _326  and  _329
REMARK  135  A    between atoms: _329  and  _330
REMARK  136  A    between atoms: _333  and  _335
REMARK  137  A    between atoms: _335  and  _336
REMARK  138  A    between atoms: _339  and  _341
REMARK  139  A    between atoms: _341  and  _342
REMARK  140  A    between atoms: _345  and  _347
REMARK  141  A    between atoms: _347  and  _348
REMARK  142  A    between atoms: _347  and  _350
REMARK  143  A    between atoms: _350  and  _351
REMARK  144  A    between atoms: _351  and  _352
REMARK  145  A    between atoms: _357  and  _359
REMARK  146  A    between atoms: _359  and  _360
REMARK  147  A    between atoms: _359  and  _362
REMARK  148  A    between atoms: _362  and  _363
REMARK  149  A    between atoms: _366  and  _368
REMARK  150  A    between atoms: _368  and  _369
REMARK  151  A    between atoms: _368  and  _371
REMARK  152  A    between atoms: _371  and  _372
REMARK  153  A    between atoms: _375  and  _377
REMARK  154  A    between atoms: _377  and  _378
REMARK  155  A    between atoms: _377  and  _380
REMARK  156  A    between atoms: _383  and  _385
REMARK  157  A    between atoms: _385  and  _386
REMARK  158  A    between atoms: _385  and  _388
REMARK  159  A    between atoms: _388  and  _389
REMARK  160  A    between atoms: _392  and  _394
REMARK  161  A    between atoms: _394  and  _395
REMARK  162  A    between atoms: _394  and  _397
REMARK  163  A    between atoms: _397  and  _398
REMARK  164  A    between atoms: _400  and  _402
REMARK  165  A    between atoms: _402  and  _403
REMARK  166  A    between atoms: _402  and  _405
REMARK  167  A    between atoms: _405  and  _406
REMARK  168  A    between atoms: _406  and  _407
REMARK  169  A    between atoms: _407  and  _408
REMARK  170  A    between atoms: _417  and  _419
REMARK  171  A    between atoms: _419  and  _420
REMARK  172  A    between atoms: _419  and  _422
REMARK  173  A    between atoms: _422  and  _423
REMARK  174  A    between atoms: _425  and  _427
REMARK  175  A    between atoms: _427  and  _428
REMARK  176  A    between atoms: _431  and  _433
REMARK  177  A    between atoms: _433  and  _434
REMARK  178  A    between atoms: _433  and  _436
REMARK  179  A    between atoms: _436  and  _437
REMARK  180  A    between atoms: _443  and  _444
REMARK  181  A    between atoms: _449  and  _451
REMARK  182  A    between atoms: _451  and  _452
REMARK  183  A    between atoms: _451  and  _454
REMARK  184  A    between atoms: _454  and  _455
REMARK  185  A    between atoms: _455  and  _456
REMARK  186  A    between atoms: _459  and  _461
REMARK  187  A    between atoms: _461  and  _462
REMARK  188  A    between atoms: _461  and  _464
REMARK  189  A    between atoms: _464  and  _465
REMARK  190  A    between atoms: _465  and  _466
REMARK  191  A    between atoms: _466  and  _467
REMARK  192  A    between atoms: _476  and  _478
REMARK  193  A    between atoms: _478  and  _479
REMARK  194  A    between atoms: _478  and  _481
REMARK  195  A    between atoms: _481  and  _482
REMARK  196  A    between atoms: _485  and  _487
REMARK  197  A    between atoms: _487  and  _488
REMARK  198  A    between atoms: _491  and  _493
REMARK  199  A    between atoms: _493  and  _494
REMARK  200  A    between atoms: _493  and  _496
REMARK  201  A    between atoms: _496  and  _497
REMARK  202  A    between atoms: _499  and  _501
REMARK  203  A    between atoms: _501  and  _502
REMARK  204  A    between atoms: _501  and  _504
REMARK  205  A    between atoms: _504  and  _505
REMARK  206  A    between atoms: _510  and  _512
REMARK  207  A    between atoms: _512  and  _513
REMARK  208  A    between atoms: _512  and  _515
REMARK  209  A    between atoms: _515  and  _516
REMARK  210  A    between atoms: _519  and  _521
REMARK  211  A    between atoms: _521  and  _522
REMARK  212  A    between atoms: _521  and  _524
REMARK  213  A    between atoms: _524  and  _525
REMARK  214  A    between atoms: _528  and  _530
REMARK  215  A    between atoms: _530  and  _531
REMARK  216  A    between atoms: _530  and  _533
REMARK  217  A    between atoms: _533  and  _534
REMARK  218  A    between atoms: _540  and  _542
REMARK  219  A    between atoms: _542  and  _543
REMARK  220  A    between atoms: _542  and  _545
REMARK  221  A    between atoms: _545  and  _546
REMARK  222  A    between atoms: _546  and  _547
REMARK  223  A    between atoms: _547  and  _548
REMARK                            x       y       z     vdW  Elec       q    Type
REMARK                         _______ _______ _______ _____ _____    ______ ____
ROOT
ATOM      1  O   HOH     1       9.244  51.680 -13.079  0.00  0.00    +0.000 OA
ENDROOT
TORSDOF 0
REMARK  Name = ../refined-set-2016/2wzm/2wzm_pocket.pdb
REMARK  223 active torsions:
REMARK  status: ('A' for Active; 'I' for Inactive)
REMARK    1  A    between atoms: _1  and  _3
REMARK    2  A    between atoms: _3  and  _4
REMARK    3  A    between atoms: _6  and  _8
REMARK    4  A    between atoms: _8  and  _9
REMARK    5  A    between atoms: _8  and  _11
REMARK    6  A    between atoms: _11  and  _12
REMARK    7  A    between atoms: _15  and  _17
REMARK    8  A    between atoms: _17  and  _18
REMARK    9  A    between atoms: _20  and  _22
REMARK   10  A    between atoms: _22  and  _23
REMARK   11  A    between atoms: _22  and  _25
REMARK   12  A    between atoms: _28  and  _30
REMARK   13  A    between atoms: _30  and  _31
REMARK   14  A    between atoms: _33  and  _35
REMARK   15  A    between atoms: _35  and  _36
REMARK   16  A    between atoms: _35  and  _38
REMARK   17  A    between atoms: _38  and  _39
REMARK   18  A    between atoms: _39  and  _40
REMARK   19  A    between atoms: _43  and  _45
REMARK   20  A    between atoms: _45  and  _46
REMARK   21  A    between atoms: _45  and  _48
REMARK   22  A    between atoms: _48  and  _49
REMARK   23  A    between atoms: _52  and  _54
REMARK   24  A    between atoms: _54  and  _55
REMARK   25  A    between atoms: _54  and  _57
REMARK   26  A    between atoms: _57  and  _58
REMARK   27  A    between atoms: _58  and  _59
REMARK   28  A    between atoms: _62  and  _64
REMARK   29  A    between atoms: _64  and  _65
REMARK   30  A    between atoms: _64  and  _67
REMARK   31  A    between atoms: _67  and  _68
REMARK   32  A    between atoms: _68  and  _69
REMARK   33  A    between atoms: _69  and  _70
REMARK   34  A    between atoms: _79  and  _81
REMARK   35  A    between atoms: _81  and  _82
REMARK   36  A    between atoms: _81  and  _84
REMARK   37  A    between atoms: _84  and  _85
REMARK   38  A    between atoms: _87  and  _89
REMARK   39  A    between atoms: _89  and  _90
REMARK   40  A    between atoms: _89  and  _92
REMARK   41  A    between atoms: _92  and  _93
REMARK   42  A    between atoms: _98  and  _99
REMARK   43  A    between atoms: _101  and  _103
REMARK   44  A    between atoms: _103  and  _104
REMARK   45  A    between atoms: _103  and  _106
REMARK   46  A    between atoms: _106  and  _107
REMARK   47  A    between atoms: _110  and  _112
REMARK   48  A    between atoms: _112  and  _113
REMARK   49  A    between atoms: _112  and  _115
REMARK   50  A    between atoms: _115  and  _116
REMARK   51  A    between atoms: _119  and  _121
REMARK   52  A    between atoms: _121  and  _122
REMARK   53  A    between atoms: _121  and  _124
REMARK   54  A    between atoms: _124  and  _125
REMARK   55  A    between atoms: _130  and  _131
REMARK   56  A    between atoms: _133  and  _135
REMARK   57  A    between atoms: _135  and  _136
REMARK   58  A    between atoms: _135  and  _138
REMARK   59  A    between atoms: _138  and  _139
REMARK   60  A    between atoms: _144  and  _146
REMARK   61  A    between atoms: _146  and  _147
REMARK   62  A    between atoms: _146  and  _149
REMARK   63  A    between atoms: _149  and  _150
REMARK   64  A    between atoms: _150  and  _151
REMARK   65  A    between atoms: _151  and  _152
REMARK   66  A    between atoms: _152  and  _153
REMARK   67  A    between atoms: _157  and  _159
REMARK   68  A    between atoms: _159  and  _160
REMARK   69  A    between atoms: _159  and  _162
REMARK   70  A    between atoms: _162  and  _163
REMARK   71  A    between atoms: _168  and  _170
REMARK   72  A    between atoms: _170  and  _171
REMARK   73  A    between atoms: _170  and  _173
REMARK   74  A    between atoms: _173  and  _174
REMARK   75  A    between atoms: _179  and  _181
REMARK   76  A    between atoms: _181  and  _182
REMARK   77  A    between atoms: _181  and  _184
REMARK   78  A    between atoms: _184  and  _185
REMARK   79  A    between atoms: _185  and  _186
REMARK   80  A    between atoms: _191  and  _193
REMARK   81  A    between atoms: _193  and  _194
REMARK   82  A    between atoms: _193  and  _196
REMARK   83  A    between atoms: _196  and  _197
REMARK   84  A    between atoms: _200  and  _202
REMARK   85  A    between atoms: _202  and  _203
REMARK   86  A    between atoms: _202  and  _205
REMARK   87  A    between atoms: _205  and  _206
REMARK   88  A    between atoms: _206  and  _207
REMARK   89  A    between atoms: _210  and  _212
REMARK   90  A    between atoms: _212  and  _213
REMARK   91  A    between atoms: _212  and  _215
REMARK   92  A    between atoms: _215  and  _216
REMARK   93  A    between atoms: _219  and  _221
REMARK   94  A    between atoms: _221  and  _222
REMARK   95  A    between atoms: _221  and  _224
REMARK   96  A    between atoms: _224  and  _225
REMARK   97  A    between atoms: _230  and  _232
REMARK   98  A    between atoms: _232  and  _233
REMARK   99  A    between atoms: _236  and  _238
REMARK  100  A    between atoms: _238  and  _239
REMARK  101  A    between atoms: _238  and  _241
REMARK  102  A    between atoms: _241  and  _242
REMARK  103  A    between atoms: _247  and  _248
REMARK  104  A    between atoms: _250  and  _252
REMARK  105  A    between atoms: _252  and  _253
REMARK  106  A    between atoms: _256  and  _257
REMARK  107  A    between atoms: _262  and  _264
REMARK  108  A    between atoms: _264  and  _265
REMARK  109  A    between atoms: _264  and  _267
REMARK  110  A    between atoms: _267  and  _268
REMARK  111  A    between atoms: _271  and  _273
REMARK  112  A    between atoms: _273  and  _274
REMARK  113  A    between atoms: _276  and  _278
REMARK  114  A    between atoms: _278  and  _279
REMARK  115  A    between atoms: _278  and  _281
REMARK  116  A    between atoms: _284  and  _286
REMARK  117  A    between atoms: _286  and  _287
REMARK  118  A    between atoms: _289  and  _291
REMARK  119  A    between atoms: _291  and  _292
REMARK  120  A    between atoms: _291  and  _294
REMARK  121  A    between atoms: _294  and  _295
REMARK  122  A    between atoms: _295  and  _296
REMARK  123  A    between atoms: _296  and  _297
REMARK  124  A    between atoms: _306  and  _308
REMARK  125  A    between atoms: _308  and  _309
REMARK  126  A    between atoms: _308  and  _311
REMARK  127  A    between atoms: _311  and  _312
REMARK  128  A    between atoms: _315  and  _317
REMARK  129  A    between atoms: _317  and  _318
REMARK  130  A    between atoms: _317  and  _320
REMARK  131  A    between atoms: _320  and  _321
REMARK  132  A    between atoms: _324  and  _326
REMARK  133  A    between atoms: _326  and  _327
REMARK  134  A    between atoms: _326  and  _329
REMARK  135  A    between atoms: _329  and  _330
REMARK  136  A    between atoms: _333  and  _335
REMARK  137  A    between atoms: _335  and  _336
REMARK  138  A    between atoms: _339  and  _341
REMARK  139  A    between atoms: _341  and  _342
REMARK  140  A    between atoms: _345  and  _347
REMARK  141  A    between atoms: _347  and  _348
REMARK  142  A    between atoms: _347  and  _350
REMARK  143  A    between atoms: _350  and  _351
REMARK  144  A    between atoms: _351  and  _352
REMARK  145  A    between atoms: _357  and  _359
REMARK  146  A    between atoms: _359  and  _360
REMARK  147  A    between atoms: _359  and  _362
REMARK  148  A    between atoms: _362  and  _363
REMARK  149  A    between atoms: _366  and  _368
REMARK  150  A    between atoms: _368  and  _369
REMARK  151  A    between atoms: _368  and  _371
REMARK  152  A    between atoms: _371  and  _372
REMARK  153  A    between atoms: _375  and  _377
REMARK  154  A    between atoms: _377  and  _378
REMARK  155  A    between atoms: _377  and  _380
REMARK  156  A    between atoms: _383  and  _385
REMARK  157  A    between atoms: _385  and  _386
REMARK  158  A    between atoms: _385  and  _388
REMARK  159  A    between atoms: _388  and  _389
REMARK  160  A    between atoms: _392  and  _394
REMARK  161  A    between atoms: _394  and  _395
REMARK  162  A    between atoms: _394  and  _397
REMARK  163  A    between atoms: _397  and  _398
REMARK  164  A    between atoms: _400  and  _402
REMARK  165  A    between atoms: _402  and  _403
REMARK  166  A    between atoms: _402  and  _405
REMARK  167  A    between atoms: _405  and  _406
REMARK  168  A    between atoms: _406  and  _407
REMARK  169  A    between atoms: _407  and  _408
REMARK  170  A    between atoms: _417  and  _419
REMARK  171  A    between atoms: _419  and  _420
REMARK  172  A    between atoms: _419  and  _422
REMARK  173  A    between atoms: _422  and  _423
REMARK  174  A    between atoms: _425  and  _427
REMARK  175  A    between atoms: _427  and  _428
REMARK  176  A    between atoms: _431  and  _433
REMARK  177  A    between atoms: _433  and  _434
REMARK  178  A    between atoms: _433  and  _436
REMARK  179  A    between atoms: _436  and  _437
REMARK  180  A    between atoms: _443  and  _444
REMARK  181  A    between atoms: _449  and  _451
REMARK  182  A    between atoms: _451  and  _452
REMARK  183  A    between atoms: _451  and  _454
REMARK  184  A    between atoms: _454  and  _455
REMARK  185  A    between atoms: _455  and  _456
REMARK  186  A    between atoms: _459  and  _461
REMARK  187  A    between atoms: _461  and  _462
REMARK  188  A    between atoms: _461  and  _464
REMARK  189  A    between atoms: _464  and  _465
REMARK  190  A    between atoms: _465  and  _466
REMARK  191  A    between atoms: _466  and  _467
REMARK  192  A    between atoms: _476  and  _478
REMARK  193  A    between atoms: _478  and  _479
REMARK  194  A    between atoms: _478  and  _481
REMARK  195  A    between atoms: _481  and  _482
REMARK  196  A    between atoms: _485  and  _487
REMARK  197  A    between atoms: _487  and  _488
REMARK  198  A    between atoms: _491  and  _493
REMARK  199  A    between atoms: _493  and  _494
REMARK  200  A    between atoms: _493  and  _496
REMARK  201  A    between atoms: _496  and  _497
REMARK  202  A    between atoms: _499  and  _501
REMARK  203  A    between atoms: _501  and  _502
REMARK  204  A    between atoms: _501  and  _504
REMARK  205  A    between atoms: _504  and  _505
REMARK  206  A    between atoms: _510  and  _512
REMARK  207  A    between atoms: _512  and  _513
REMARK  208  A    between atoms: _512  and  _515
REMARK  209  A    between atoms: _515  and  _516
REMARK  210  A    between atoms: _519  and  _521
REMARK  211  A    between atoms: _521  and  _522
REMARK  212  A    between atoms: _521  and  _524
REMARK  213  A    between atoms: _524  and  _525
REMARK  214  A    between atoms: _528  and  _530
REMARK  215  A    between atoms: _530  and  _531
REMARK  216  A    between atoms: _530  and  _533
REMARK  217  A    between atoms: _533  and  _534
REMARK  218  A    between atoms: _540  and  _542
REMARK  219  A    between atoms: _542  and  _543
REMARK  220  A    between atoms: _542  and  _545
REMARK  221  A    between atoms: _545  and  _546
REMARK  222  A    between atoms: _546  and  _547
REMARK  223  A    between atoms: _547  and  _548
REMARK                            x       y       z     vdW  Elec       q    Type
REMARK                         _______ _______ _______ _____ _____    ______ ____
ROOT
ATOM      1  O   HOH     1       7.717  40.785   2.251  0.00  0.00    +0.000 OA
ENDROOT
TORSDOF 0
REMARK  Name = ../refined-set-2016/2wzm/2wzm_pocket.pdb
REMARK  223 active torsions:
REMARK  status: ('A' for Active; 'I' for Inactive)
REMARK    1  A    between atoms: _1  and  _3
REMARK    2  A    between atoms: _3  and  _4
REMARK    3  A    between atoms: _6  and  _8
REMARK    4  A    between atoms: _8  and  _9
REMARK    5  A    between atoms: _8  and  _11
REMARK    6  A    between atoms: _11  and  _12
REMARK    7  A    between atoms: _15  and  _17
REMARK    8  A    between atoms: _17  and  _18
REMARK    9  A    between atoms: _20  and  _22
REMARK   10  A    between atoms: _22  and  _23
REMARK   11  A    between atoms: _22  and  _25
REMARK   12  A    between atoms: _28  and  _30
REMARK   13  A    between atoms: _30  and  _31
REMARK   14  A    between atoms: _33  and  _35
REMARK   15  A    between atoms: _35  and  _36
REMARK   16  A    between atoms: _35  and  _38
REMARK   17  A    between atoms: _38  and  _39
REMARK   18  A    between atoms: _39  and  _40
REMARK   19  A    between atoms: _43  and  _45
REMARK   20  A    between atoms: _45  and  _46
REMARK   21  A    between atoms: _45  and  _48
REMARK   22  A    between atoms: _48  and  _49
REMARK   23  A    between atoms: _52  and  _54
REMARK   24  A    between atoms: _54  and  _55
REMARK   25  A    between atoms: _54  and  _57
REMARK   26  A    between atoms: _57  and  _58
REMARK   27  A    between atoms: _58  and  _59
REMARK   28  A    between atoms: _62  and  _64
REMARK   29  A    between atoms: _64  and  _65
REMARK   30  A    between atoms: _64  and  _67
REMARK   31  A    between atoms: _67  and  _68
REMARK   32  A    between atoms: _68  and  _69
REMARK   33  A    between atoms: _69  and  _70
REMARK   34  A    between atoms: _79  and  _81
REMARK   35  A    between atoms: _81  and  _82
REMARK   36  A    between atoms: _81  and  _84
REMARK   37  A    between atoms: _84  and  _85
REMARK   38  A    between atoms: _87  and  _89
REMARK   39  A    between atoms: _89  and  _90
REMARK   40  A    between atoms: _89  and  _92
REMARK   41  A    between atoms: _92  and  _93
REMARK   42  A    between atoms: _98  and  _99
REMARK   43  A    between atoms: _101  and  _103
REMARK   44  A    between atoms: _103  and  _104
REMARK   45  A    between atoms: _103  and  _106
REMARK   46  A    between atoms: _106  and  _107
REMARK   47  A    between atoms: _110  and  _112
REMARK   48  A    between atoms: _112  and  _113
REMARK   49  A    between atoms: _112  and  _115
REMARK   50  A    between atoms: _115  and  _116
REMARK   51  A    between atoms: _119  and  _121
REMARK   52  A    between atoms: _121  and  _122
REMARK   53  A    between atoms: _121  and  _124
REMARK   54  A    between atoms: _124  and  _125
REMARK   55  A    between atoms: _130  and  _131
REMARK   56  A    between atoms: _133  and  _135
REMARK   57  A    between atoms: _135  and  _136
REMARK   58  A    between atoms: _135  and  _138
REMARK   59  A    between atoms: _138  and  _139
REMARK   60  A    between atoms: _144  and  _146
REMARK   61  A    between atoms: _146  and  _147
REMARK   62  A    between atoms: _146  and  _149
REMARK   63  A    between atoms: _149  and  _150
REMARK   64  A    between atoms: _150  and  _151
REMARK   65  A    between atoms: _151  and  _152
REMARK   66  A    between atoms: _152  and  _153
REMARK   67  A    between atoms: _157  and  _159
REMARK   68  A    between atoms: _159  and  _160
REMARK   69  A    between atoms: _159  and  _162
REMARK   70  A    between atoms: _162  and  _163
REMARK   71  A    between atoms: _168  and  _170
REMARK   72  A    between atoms: _170  and  _171
REMARK   73  A    between atoms: _170  and  _173
REMARK   74  A    between atoms: _173  and  _174
REMARK   75  A    between atoms: _179  and  _181
REMARK   76  A    between atoms: _181  and  _182
REMARK   77  A    between atoms: _181  and  _184
REMARK   78  A    between atoms: _184  and  _185
REMARK   79  A    between atoms: _185  and  _186
REMARK   80  A    between atoms: _191  and  _193
REMARK   81  A    between atoms: _193  and  _194
REMARK   82  A    between atoms: _193  and  _196
REMARK   83  A    between atoms: _196  and  _197
REMARK   84  A    between atoms: _200  and  _202
REMARK   85  A    between atoms: _202  and  _203
REMARK   86  A    between atoms: _202  and  _205
REMARK   87  A    between atoms: _205  and  _206
REMARK   88  A    between atoms: _206  and  _207
REMARK   89  A    between atoms: _210  and  _212
REMARK   90  A    between atoms: _212  and  _213
REMARK   91  A    between atoms: _212  and  _215
REMARK   92  A    between atoms: _215  and  _216
REMARK   93  A    between atoms: _219  and  _221
REMARK   94  A    between atoms: _221  and  _222
REMARK   95  A    between atoms: _221  and  _224
REMARK   96  A    between atoms: _224  and  _225
REMARK   97  A    between atoms: _230  and  _232
REMARK   98  A    between atoms: _232  and  _233
REMARK   99  A    between atoms: _236  and  _238
REMARK  100  A    between atoms: _238  and  _239
REMARK  101  A    between atoms: _238  and  _241
REMARK  102  A    between atoms: _241  and  _242
REMARK  103  A    between atoms: _247  and  _248
REMARK  104  A    between atoms: _250  and  _252
REMARK  105  A    between atoms: _252  and  _253
REMARK  106  A    between atoms: _256  and  _257
REMARK  107  A    between atoms: _262  and  _264
REMARK  108  A    between atoms: _264  and  _265
REMARK  109  A    between atoms: _264  and  _267
REMARK  110  A    between atoms: _267  and  _268
REMARK  111  A    between atoms: _271  and  _273
REMARK  112  A    between atoms: _273  and  _274
REMARK  113  A    between atoms: _276  and  _278
REMARK  114  A    between atoms: _278  and  _279
REMARK  115  A    between atoms: _278  and  _281
REMARK  116  A    between atoms: _284  and  _286
REMARK  117  A    between atoms: _286  and  _287
REMARK  118  A    between atoms: _289  and  _291
REMARK  119  A    between atoms: _291  and  _292
REMARK  120  A    between atoms: _291  and  _294
REMARK  121  A    between atoms: _294  and  _295
REMARK  122  A    between atoms: _295  and  _296
REMARK  123  A    between atoms: _296  and  _297
REMARK  124  A    between atoms: _306  and  _308
REMARK  125  A    between atoms: _308  and  _309
REMARK  126  A    between atoms: _308  and  _311
REMARK  127  A    between atoms: _311  and  _312
REMARK  128  A    between atoms: _315  and  _317
REMARK  129  A    between atoms: _317  and  _318
REMARK  130  A    between atoms: _317  and  _320
REMARK  131  A    between atoms: _320  and  _321
REMARK  132  A    between atoms: _324  and  _326
REMARK  133  A    between atoms: _326  and  _327
REMARK  134  A    between atoms: _326  and  _329
REMARK  135  A    between atoms: _329  and  _330
REMARK  136  A    between atoms: _333  and  _335
REMARK  137  A    between atoms: _335  and  _336
REMARK  138  A    between atoms: _339  and  _341
REMARK  139  A    between atoms: _341  and  _342
REMARK  140  A    between atoms: _345  and  _347
REMARK  141  A    between atoms: _347  and  _348
REMARK  142  A    between atoms: _347  and  _350
REMARK  143  A    between atoms: _350  and  _351
REMARK  144  A    between atoms: _351  and  _352
REMARK  145  A    between atoms: _357  and  _359
REMARK  146  A    between atoms: _359  and  _360
REMARK  147  A    between atoms: _359  and  _362
REMARK  148  A    between atoms: _362  and  _363
REMARK  149  A    between atoms: _366  and  _368
REMARK  150  A    between atoms: _368  and  _369
REMARK  151  A    between atoms: _368  and  _371
REMARK  152  A    between atoms: _371  and  _372
REMARK  153  A    between atoms: _375  and  _377
REMARK  154  A    between atoms: _377  and  _378
REMARK  155  A    between atoms: _377  and  _380
REMARK  156  A    between atoms: _383  and  _385
REMARK  157  A    between atoms: _385  and  _386
REMARK  158  A    between atoms: _385  and  _388
REMARK  159  A    between atoms: _388  and  _389
REMARK  160  A    between atoms: _392  and  _394
REMARK  161  A    between atoms: _394  and  _395
REMARK  162  A    between atoms: _394  and  _397
REMARK  163  A    between atoms: _397  and  _398
REMARK  164  A    between atoms: _400  and  _402
REMARK  165  A    between atoms: _402  and  _403
REMARK  166  A    between atoms: _402  and  _405
REMARK  167  A    between atoms: _405  and  _406
REMARK  168  A    between atoms: _406  and  _407
REMARK  169  A    between atoms: _407  and  _408
REMARK  170  A    between atoms: _417  and  _419
REMARK  171  A    between atoms: _419  and  _420
REMARK  172  A    between atoms: _419  and  _422
REMARK  173  A    between atoms: _422  and  _423
REMARK  174  A    between atoms: _425  and  _427
REMARK  175  A    between atoms: _427  and  _428
REMARK  176  A    between atoms: _431  and  _433
REMARK  177  A    between atoms: _433  and  _434
REMARK  178  A    between atoms: _433  and  _436
REMARK  179  A    between atoms: _436  and  _437
REMARK  180  A    between atoms: _443  and  _444
REMARK  181  A    between atoms: _449  and  _451
REMARK  182  A    between atoms: _451  and  _452
REMARK  183  A    between atoms: _451  and  _454
REMARK  184  A    between atoms: _454  and  _455
REMARK  185  A    between atoms: _455  and  _456
REMARK  186  A    between atoms: _459  and  _461
REMARK  187  A    between atoms: _461  and  _462
REMARK  188  A    between atoms: _461  and  _464
REMARK  189  A    between atoms: _464  and  _465
REMARK  190  A    between atoms: _465  and  _466
REMARK  191  A    between atoms: _466  and  _467
REMARK  192  A    between atoms: _476  and  _478
REMARK  193  A    between atoms: _478  and  _479
REMARK  194  A    between atoms: _478  and  _481
REMARK  195  A    between atoms: _481  and  _482
REMARK  196  A    between atoms: _485  and  _487
REMARK  197  A    between atoms: _487  and  _488
REMARK  198  A    between atoms: _491  and  _493
REMARK  199  A    between atoms: _493  and  _494
REMARK  200  A    between atoms: _493  and  _496
REMARK  201  A    between atoms: _496  and  _497
REMARK  202  A    between atoms: _499  and  _501
REMARK  203  A    between atoms: _501  and  _502
REMARK  204  A    between atoms: _501  and  _504
REMARK  205  A    between atoms: _504  and  _505
REMARK  206  A    between atoms: _510  and  _512
REMARK  207  A    between atoms: _512  and  _513
REMARK  208  A    between atoms: _512  and  _515
REMARK  209  A    between atoms: _515  and  _516
REMARK  210  A    between atoms: _519  and  _521
REMARK  211  A    between atoms: _521  and  _522
REMARK  212  A    between atoms: _521  and  _524
REMARK  213  A    between atoms: _524  and  _525
REMARK  214  A    between atoms: _528  and  _530
REMARK  215  A    between atoms: _530  and  _531
REMARK  216  A    between atoms: _530  and  _533
REMARK  217  A    between atoms: _533  and  _534
REMARK  218  A    between atoms: _540  and  _542
REMARK  219  A    between atoms: _542  and  _543
REMARK  220  A    between atoms: _542  and  _545
REMARK  221  A    between atoms: _545  and  _546
REMARK  222  A    between atoms: _546  and  _547
REMARK  223  A    between atoms: _547  and  _548
REMARK                            x       y       z     vdW  Elec       q    Type
REMARK                         _______ _______ _______ _____ _____    ______ ____
ROOT
ATOM      1  O   HOH     1      14.505  40.970  -5.537  0.00  0.00    +0.000 OA
ENDROOT
TORSDOF 0
REMARK  Name = ../refined-set-2016/2wzm/2wzm_pocket.pdb
REMARK  223 active torsions:
REMARK  status: ('A' for Active; 'I' for Inactive)
REMARK    1  A    between atoms: _1  and  _3
REMARK    2  A    between atoms: _3  and  _4
REMARK    3  A    between atoms: _6  and  _8
REMARK    4  A    between atoms: _8  and  _9
REMARK    5  A    between atoms: _8  and  _11
REMARK    6  A    between atoms: _11  and  _12
REMARK    7  A    between atoms: _15  and  _17
REMARK    8  A    between atoms: _17  and  _18
REMARK    9  A    between atoms: _20  and  _22
REMARK   10  A    between atoms: _22  and  _23
REMARK   11  A    between atoms: _22  and  _25
REMARK   12  A    between atoms: _28  and  _30
REMARK   13  A    between atoms: _30  and  _31
REMARK   14  A    between atoms: _33  and  _35
REMARK   15  A    between atoms: _35  and  _36
REMARK   16  A    between atoms: _35  and  _38
REMARK   17  A    between atoms: _38  and  _39
REMARK   18  A    between atoms: _39  and  _40
REMARK   19  A    between atoms: _43  and  _45
REMARK   20  A    between atoms: _45  and  _46
REMARK   21  A    between atoms: _45  and  _48
REMARK   22  A    between atoms: _48  and  _49
REMARK   23  A    between atoms: _52  and  _54
REMARK   24  A    between atoms: _54  and  _55
REMARK   25  A    between atoms: _54  and  _57
REMARK   26  A    between atoms: _57  and  _58
REMARK   27  A    between atoms: _58  and  _59
REMARK   28  A    between atoms: _62  and  _64
REMARK   29  A    between atoms: _64  and  _65
REMARK   30  A    between atoms: _64  and  _67
REMARK   31  A    between atoms: _67  and  _68
REMARK   32  A    between atoms: _68  and  _69
REMARK   33  A    between atoms: _69  and  _70
REMARK   34  A    between atoms: _79  and  _81
REMARK   35  A    between atoms: _81  and  _82
REMARK   36  A    between atoms: _81  and  _84
REMARK   37  A    between atoms: _84  and  _85
REMARK   38  A    between atoms: _87  and  _89
REMARK   39  A    between atoms: _89  and  _90
REMARK   40  A    between atoms: _89  and  _92
REMARK   41  A    between atoms: _92  and  _93
REMARK   42  A    between atoms: _98  and  _99
REMARK   43  A    between atoms: _101  and  _103
REMARK   44  A    between atoms: _103  and  _104
REMARK   45  A    between atoms: _103  and  _106
REMARK   46  A    between atoms: _106  and  _107
REMARK   47  A    between atoms: _110  and  _112
REMARK   48  A    between atoms: _112  and  _113
REMARK   49  A    between atoms: _112  and  _115
REMARK   50  A    between atoms: _115  and  _116
REMARK   51  A    between atoms: _119  and  _121
REMARK   52  A    between atoms: _121  and  _122
REMARK   53  A    between atoms: _121  and  _124
REMARK   54  A    between atoms: _124  and  _125
REMARK   55  A    between atoms: _130  and  _131
REMARK   56  A    between atoms: _133  and  _135
REMARK   57  A    between atoms: _135  and  _136
REMARK   58  A    between atoms: _135  and  _138
REMARK   59  A    between atoms: _138  and  _139
REMARK   60  A    between atoms: _144  and  _146
REMARK   61  A    between atoms: _146  and  _147
REMARK   62  A    between atoms: _146  and  _149
REMARK   63  A    between atoms: _149  and  _150
REMARK   64  A    between atoms: _150  and  _151
REMARK   65  A    between atoms: _151  and  _152
REMARK   66  A    between atoms: _152  and  _153
REMARK   67  A    between atoms: _157  and  _159
REMARK   68  A    between atoms: _159  and  _160
REMARK   69  A    between atoms: _159  and  _162
REMARK   70  A    between atoms: _162  and  _163
REMARK   71  A    between atoms: _168  and  _170
REMARK   72  A    between atoms: _170  and  _171
REMARK   73  A    between atoms: _170  and  _173
REMARK   74  A    between atoms: _173  and  _174
REMARK   75  A    between atoms: _179  and  _181
REMARK   76  A    between atoms: _181  and  _182
REMARK   77  A    between atoms: _181  and  _184
REMARK   78  A    between atoms: _184  and  _185
REMARK   79  A    between atoms: _185  and  _186
REMARK   80  A    between atoms: _191  and  _193
REMARK   81  A    between atoms: _193  and  _194
REMARK   82  A    between atoms: _193  and  _196
REMARK   83  A    between atoms: _196  and  _197
REMARK   84  A    between atoms: _200  and  _202
REMARK   85  A    between atoms: _202  and  _203
REMARK   86  A    between atoms: _202  and  _205
REMARK   87  A    between atoms: _205  and  _206
REMARK   88  A    between atoms: _206  and  _207
REMARK   89  A    between atoms: _210  and  _212
REMARK   90  A    between atoms: _212  and  _213
REMARK   91  A    between atoms: _212  and  _215
REMARK   92  A    between atoms: _215  and  _216
REMARK   93  A    between atoms: _219  and  _221
REMARK   94  A    between atoms: _221  and  _222
REMARK   95  A    between atoms: _221  and  _224
REMARK   96  A    between atoms: _224  and  _225
REMARK   97  A    between atoms: _230  and  _232
REMARK   98  A    between atoms: _232  and  _233
REMARK   99  A    between atoms: _236  and  _238
REMARK  100  A    between atoms: _238  and  _239
REMARK  101  A    between atoms: _238  and  _241
REMARK  102  A    between atoms: _241  and  _242
REMARK  103  A    between atoms: _247  and  _248
REMARK  104  A    between atoms: _250  and  _252
REMARK  105  A    between atoms: _252  and  _253
REMARK  106  A    between atoms: _256  and  _257
REMARK  107  A    between atoms: _262  and  _264
REMARK  108  A    between atoms: _264  and  _265
REMARK  109  A    between atoms: _264  and  _267
REMARK  110  A    between atoms: _267  and  _268
REMARK  111  A    between atoms: _271  and  _273
REMARK  112  A    between atoms: _273  and  _274
REMARK  113  A    between atoms: _276  and  _278
REMARK  114  A    between atoms: _278  and  _279
REMARK  115  A    between atoms: _278  and  _281
REMARK  116  A    between atoms: _284  and  _286
REMARK  117  A    between atoms: _286  and  _287
REMARK  118  A    between atoms: _289  and  _291
REMARK  119  A    between atoms: _291  and  _292
REMARK  120  A    between atoms: _291  and  _294
REMARK  121  A    between atoms: _294  and  _295
REMARK  122  A    between atoms: _295  and  _296
REMARK  123  A    between atoms: _296  and  _297
REMARK  124  A    between atoms: _306  and  _308
REMARK  125  A    between atoms: _308  and  _309
REMARK  126  A    between atoms: _308  and  _311
REMARK  127  A    between atoms: _311  and  _312
REMARK  128  A    between atoms: _315  and  _317
REMARK  129  A    between atoms: _317  and  _318
REMARK  130  A    between atoms: _317  and  _320
REMARK  131  A    between atoms: _320  and  _321
REMARK  132  A    between atoms: _324  and  _326
REMARK  133  A    between atoms: _326  and  _327
REMARK  134  A    between atoms: _326  and  _329
REMARK  135  A    between atoms: _329  and  _330
REMARK  136  A    between atoms: _333  and  _335
REMARK  137  A    between atoms: _335  and  _336
REMARK  138  A    between atoms: _339  and  _341
REMARK  139  A    between atoms: _341  and  _342
REMARK  140  A    between atoms: _345  and  _347
REMARK  141  A    between atoms: _347  and  _348
REMARK  142  A    between atoms: _347  and  _350
REMARK  143  A    between atoms: _350  and  _351
REMARK  144  A    between atoms: _351  and  _352
REMARK  145  A    between atoms: _357  and  _359
REMARK  146  A    between atoms: _359  and  _360
REMARK  147  A    between atoms: _359  and  _362
REMARK  148  A    between atoms: _362  and  _363
REMARK  149  A    between atoms: _366  and  _368
REMARK  150  A    between atoms: _368  and  _369
REMARK  151  A    between atoms: _368  and  _371
REMARK  152  A    between atoms: _371  and  _372
REMARK  153  A    between atoms: _375  and  _377
REMARK  154  A    between atoms: _377  and  _378
REMARK  155  A    between atoms: _377  and  _380
REMARK  156  A    between atoms: _383  and  _385
REMARK  157  A    between atoms: _385  and  _386
REMARK  158  A    between atoms: _385  and  _388
REMARK  159  A    between atoms: _388  and  _389
REMARK  160  A    between atoms: _392  and  _394
REMARK  161  A    between atoms: _394  and  _395
REMARK  162  A    between atoms: _394  and  _397
REMARK  163  A    between atoms: _397  and  _398
REMARK  164  A    between atoms: _400  and  _402
REMARK  165  A    between atoms: _402  and  _403
REMARK  166  A    between atoms: _402  and  _405
REMARK  167  A    between atoms: _405  and  _406
REMARK  168  A    between atoms: _406  and  _407
REMARK  169  A    between atoms: _407  and  _408
REMARK  170  A    between atoms: _417  and  _419
REMARK  171  A    between atoms: _419  and  _420
REMARK  172  A    between atoms: _419  and  _422
REMARK  173  A    between atoms: _422  and  _423
REMARK  174  A    between atoms: _425  and  _427
REMARK  175  A    between atoms: _427  and  _428
REMARK  176  A    between atoms: _431  and  _433
REMARK  177  A    between atoms: _433  and  _434
REMARK  178  A    between atoms: _433  and  _436
REMARK  179  A    between atoms: _436  and  _437
REMARK  180  A    between atoms: _443  and  _444
REMARK  181  A    between atoms: _449  and  _451
REMARK  182  A    between atoms: _451  and  _452
REMARK  183  A    between atoms: _451  and  _454
REMARK  184  A    between atoms: _454  and  _455
REMARK  185  A    between atoms: _455  and  _456
REMARK  186  A    between atoms: _459  and  _461
REMARK  187  A    between atoms: _461  and  _462
REMARK  188  A    between atoms: _461  and  _464
REMARK  189  A    between atoms: _464  and  _465
REMARK  190  A    between atoms: _465  and  _466
REMARK  191  A    between atoms: _466  and  _467
REMARK  192  A    between atoms: _476  and  _478
REMARK  193  A    between atoms: _478  and  _479
REMARK  194  A    between atoms: _478  and  _481
REMARK  195  A    between atoms: _481  and  _482
REMARK  196  A    between atoms: _485  and  _487
REMARK  197  A    between atoms: _487  and  _488
REMARK  198  A    between atoms: _491  and  _493
REMARK  199  A    between atoms: _493  and  _494
REMARK  200  A    between atoms: _493  and  _496
REMARK  201  A    between atoms: _496  and  _497
REMARK  202  A    between atoms: _499  and  _501
REMARK  203  A    between atoms: _501  and  _502
REMARK  204  A    between atoms: _501  and  _504
REMARK  205  A    between atoms: _504  and  _505
REMARK  206  A    between atoms: _510  and  _512
REMARK  207  A    between atoms: _512  and  _513
REMARK  208  A    between atoms: _512  and  _515
REMARK  209  A    between atoms: _515  and  _516
REMARK  210  A    between atoms: _519  and  _521
REMARK  211  A    between atoms: _521  and  _522
REMARK  212  A    between atoms: _521  and  _524
REMARK  213  A    between atoms: _524  and  _525
REMARK  214  A    between atoms: _528  and  _530
REMARK  215  A    between atoms: _530  and  _531
REMARK  216  A    between atoms: _530  and  _533
REMARK  217  A    between atoms: _533  and  _534
REMARK  218  A    between atoms: _540  and  _542
REMARK  219  A    between atoms: _542  and  _543
REMARK  220  A    between atoms: _542  and  _545
REMARK  221  A    between atoms: _545  and  _546
REMARK  222  A    between atoms: _546  and  _547
REMARK  223  A    between atoms: _547  and  _548
REMARK                            x       y       z     vdW  Elec       q    Type
REMARK                         _______ _______ _______ _____ _____    ______ ____
ROOT
ATOM      1  O   HOH     1       8.447  46.859 -15.281  0.00  0.00    +0.000 OA
ENDROOT
TORSDOF 0
REMARK  Name = ../refined-set-2016/2wzm/2wzm_pocket.pdb
REMARK  223 active torsions:
REMARK  status: ('A' for Active; 'I' for Inactive)
REMARK    1  A    between atoms: _1  and  _3
REMARK    2  A    between atoms: _3  and  _4
REMARK    3  A    between atoms: _6  and  _8
REMARK    4  A    between atoms: _8  and  _9
REMARK    5  A    between atoms: _8  and  _11
REMARK    6  A    between atoms: _11  and  _12
REMARK    7  A    between atoms: _15  and  _17
REMARK    8  A    between atoms: _17  and  _18
REMARK    9  A    between atoms: _20  and  _22
REMARK   10  A    between atoms: _22  and  _23
REMARK   11  A    between atoms: _22  and  _25
REMARK   12  A    between atoms: _28  and  _30
REMARK   13  A    between atoms: _30  and  _31
REMARK   14  A    between atoms: _33  and  _35
REMARK   15  A    between atoms: _35  and  _36
REMARK   16  A    between atoms: _35  and  _38
REMARK   17  A    between atoms: _38  and  _39
REMARK   18  A    between atoms: _39  and  _40
REMARK   19  A    between atoms: _43  and  _45
REMARK   20  A    between atoms: _45  and  _46
REMARK   21  A    between atoms: _45  and  _48
REMARK   22  A    between atoms: _48  and  _49
REMARK   23  A    between atoms: _52  and  _54
REMARK   24  A    between atoms: _54  and  _55
REMARK   25  A    between atoms: _54  and  _57
REMARK   26  A    between atoms: _57  and  _58
REMARK   27  A    between atoms: _58  and  _59
REMARK   28  A    between atoms: _62  and  _64
REMARK   29  A    between atoms: _64  and  _65
REMARK   30  A    between atoms: _64  and  _67
REMARK   31  A    between atoms: _67  and  _68
REMARK   32  A    between atoms: _68  and  _69
REMARK   33  A    between atoms: _69  and  _70
REMARK   34  A    between atoms: _79  and  _81
REMARK   35  A    between atoms: _81  and  _82
REMARK   36  A    between atoms: _81  and  _84
REMARK   37  A    between atoms: _84  and  _85
REMARK   38  A    between atoms: _87  and  _89
REMARK   39  A    between atoms: _89  and  _90
REMARK   40  A    between atoms: _89  and  _92
REMARK   41  A    between atoms: _92  and  _93
REMARK   42  A    between atoms: _98  and  _99
REMARK   43  A    between atoms: _101  and  _103
REMARK   44  A    between atoms: _103  and  _104
REMARK   45  A    between atoms: _103  and  _106
REMARK   46  A    between atoms: _106  and  _107
REMARK   47  A    between atoms: _110  and  _112
REMARK   48  A    between atoms: _112  and  _113
REMARK   49  A    between atoms: _112  and  _115
REMARK   50  A    between atoms: _115  and  _116
REMARK   51  A    between atoms: _119  and  _121
REMARK   52  A    between atoms: _121  and  _122
REMARK   53  A    between atoms: _121  and  _124
REMARK   54  A    between atoms: _124  and  _125
REMARK   55  A    between atoms: _130  and  _131
REMARK   56  A    between atoms: _133  and  _135
REMARK   57  A    between atoms: _135  and  _136
REMARK   58  A    between atoms: _135  and  _138
REMARK   59  A    between atoms: _138  and  _139
REMARK   60  A    between atoms: _144  and  _146
REMARK   61  A    between atoms: _146  and  _147
REMARK   62  A    between atoms: _146  and  _149
REMARK   63  A    between atoms: _149  and  _150
REMARK   64  A    between atoms: _150  and  _151
REMARK   65  A    between atoms: _151  and  _152
REMARK   66  A    between atoms: _152  and  _153
REMARK   67  A    between atoms: _157  and  _159
REMARK   68  A    between atoms: _159  and  _160
REMARK   69  A    between atoms: _159  and  _162
REMARK   70  A    between atoms: _162  and  _163
REMARK   71  A    between atoms: _168  and  _170
REMARK   72  A    between atoms: _170  and  _171
REMARK   73  A    between atoms: _170  and  _173
REMARK   74  A    between atoms: _173  and  _174
REMARK   75  A    between atoms: _179  and  _181
REMARK   76  A    between atoms: _181  and  _182
REMARK   77  A    between atoms: _181  and  _184
REMARK   78  A    between atoms: _184  and  _185
REMARK   79  A    between atoms: _185  and  _186
REMARK   80  A    between atoms: _191  and  _193
REMARK   81  A    between atoms: _193  and  _194
REMARK   82  A    between atoms: _193  and  _196
REMARK   83  A    between atoms: _196  and  _197
REMARK   84  A    between atoms: _200  and  _202
REMARK   85  A    between atoms: _202  and  _203
REMARK   86  A    between atoms: _202  and  _205
REMARK   87  A    between atoms: _205  and  _206
REMARK   88  A    between atoms: _206  and  _207
REMARK   89  A    between atoms: _210  and  _212
REMARK   90  A    between atoms: _212  and  _213
REMARK   91  A    between atoms: _212  and  _215
REMARK   92  A    between atoms: _215  and  _216
REMARK   93  A    between atoms: _219  and  _221
REMARK   94  A    between atoms: _221  and  _222
REMARK   95  A    between atoms: _221  and  _224
REMARK   96  A    between atoms: _224  and  _225
REMARK   97  A    between atoms: _230  and  _232
REMARK   98  A    between atoms: _232  and  _233
REMARK   99  A    between atoms: _236  and  _238
REMARK  100  A    between atoms: _238  and  _239
REMARK  101  A    between atoms: _238  and  _241
REMARK  102  A    between atoms: _241  and  _242
REMARK  103  A    between atoms: _247  and  _248
REMARK  104  A    between atoms: _250  and  _252
REMARK  105  A    between atoms: _252  and  _253
REMARK  106  A    between atoms: _256  and  _257
REMARK  107  A    between atoms: _262  and  _264
REMARK  108  A    between atoms: _264  and  _265
REMARK  109  A    between atoms: _264  and  _267
REMARK  110  A    between atoms: _267  and  _268
REMARK  111  A    between atoms: _271  and  _273
REMARK  112  A    between atoms: _273  and  _274
REMARK  113  A    between atoms: _276  and  _278
REMARK  114  A    between atoms: _278  and  _279
REMARK  115  A    between atoms: _278  and  _281
REMARK  116  A    between atoms: _284  and  _286
REMARK  117  A    between atoms: _286  and  _287
REMARK  118  A    between atoms: _289  and  _291
REMARK  119  A    between atoms: _291  and  _292
REMARK  120  A    between atoms: _291  and  _294
REMARK  121  A    between atoms: _294  and  _295
REMARK  122  A    between atoms: _295  and  _296
REMARK  123  A    between atoms: _296  and  _297
REMARK  124  A    between atoms: _306  and  _308
REMARK  125  A    between atoms: _308  and  _309
REMARK  126  A    between atoms: _308  and  _311
REMARK  127  A    between atoms: _311  and  _312
REMARK  128  A    between atoms: _315  and  _317
REMARK  129  A    between atoms: _317  and  _318
REMARK  130  A    between atoms: _317  and  _320
REMARK  131  A    between atoms: _320  and  _321
REMARK  132  A    between atoms: _324  and  _326
REMARK  133  A    between atoms: _326  and  _327
REMARK  134  A    between atoms: _326  and  _329
REMARK  135  A    between atoms: _329  and  _330
REMARK  136  A    between atoms: _333  and  _335
REMARK  137  A    between atoms: _335  and  _336
REMARK  138  A    between atoms: _339  and  _341
REMARK  139  A    between atoms: _341  and  _342
REMARK  140  A    between atoms: _345  and  _347
REMARK  141  A    between atoms: _347  and  _348
REMARK  142  A    between atoms: _347  and  _350
REMARK  143  A    between atoms: _350  and  _351
REMARK  144  A    between atoms: _351  and  _352
REMARK  145  A    between atoms: _357  and  _359
REMARK  146  A    between atoms: _359  and  _360
REMARK  147  A    between atoms: _359  and  _362
REMARK  148  A    between atoms: _362  and  _363
REMARK  149  A    between atoms: _366  and  _368
REMARK  150  A    between atoms: _368  and  _369
REMARK  151  A    between atoms: _368  and  _371
REMARK  152  A    between atoms: _371  and  _372
REMARK  153  A    between atoms: _375  and  _377
REMARK  154  A    between atoms: _377  and  _378
REMARK  155  A    between atoms: _377  and  _380
REMARK  156  A    between atoms: _383  and  _385
REMARK  157  A    between atoms: _385  and  _386
REMARK  158  A    between atoms: _385  and  _388
REMARK  159  A    between atoms: _388  and  _389
REMARK  160  A    between atoms: _392  and  _394
REMARK  161  A    between atoms: _394  and  _395
REMARK  162  A    between atoms: _394  and  _397
REMARK  163  A    between atoms: _397  and  _398
REMARK  164  A    between atoms: _400  and  _402
REMARK  165  A    between atoms: _402  and  _403
REMARK  166  A    between atoms: _402  and  _405
REMARK  167  A    between atoms: _405  and  _406
REMARK  168  A    between atoms: _406  and  _407
REMARK  169  A    between atoms: _407  and  _408
REMARK  170  A    between atoms: _417  and  _419
REMARK  171  A    between atoms: _419  and  _420
REMARK  172  A    between atoms: _419  and  _422
REMARK  173  A    between atoms: _422  and  _423
REMARK  174  A    between atoms: _425  and  _427
REMARK  175  A    between atoms: _427  and  _428
REMARK  176  A    between atoms: _431  and  _433
REMARK  177  A    between atoms: _433  and  _434
REMARK  178  A    between atoms: _433  and  _436
REMARK  179  A    between atoms: _436  and  _437
REMARK  180  A    between atoms: _443  and  _444
REMARK  181  A    between atoms: _449  and  _451
REMARK  182  A    between atoms: _451  and  _452
REMARK  183  A    between atoms: _451  and  _454
REMARK  184  A    between atoms: _454  and  _455
REMARK  185  A    between atoms: _455  and  _456
REMARK  186  A    between atoms: _459  and  _461
REMARK  187  A    between atoms: _461  and  _462
REMARK  188  A    between atoms: _461  and  _464
REMARK  189  A    between atoms: _464  and  _465
REMARK  190  A    between atoms: _465  and  _466
REMARK  191  A    between atoms: _466  and  _467
REMARK  192  A    between atoms: _476  and  _478
REMARK  193  A    between atoms: _478  and  _479
REMARK  194  A    between atoms: _478  and  _481
REMARK  195  A    between atoms: _481  and  _482
REMARK  196  A    between atoms: _485  and  _487
REMARK  197  A    between atoms: _487  and  _488
REMARK  198  A    between atoms: _491  and  _493
REMARK  199  A    between atoms: _493  and  _494
REMARK  200  A    between atoms: _493  and  _496
REMARK  201  A    between atoms: _496  and  _497
REMARK  202  A    between atoms: _499  and  _501
REMARK  203  A    between atoms: _501  and  _502
REMARK  204  A    between atoms: _501  and  _504
REMARK  205  A    between atoms: _504  and  _505
REMARK  206  A    between atoms: _510  and  _512
REMARK  207  A    between atoms: _512  and  _513
REMARK  208  A    between atoms: _512  and  _515
REMARK  209  A    between atoms: _515  and  _516
REMARK  210  A    between atoms: _519  and  _521
REMARK  211  A    between atoms: _521  and  _522
REMARK  212  A    between atoms: _521  and  _524
REMARK  213  A    between atoms: _524  and  _525
REMARK  214  A    between atoms: _528  and  _530
REMARK  215  A    between atoms: _530  and  _531
REMARK  216  A    between atoms: _530  and  _533
REMARK  217  A    between atoms: _533  and  _534
REMARK  218  A    between atoms: _540  and  _542
REMARK  219  A    between atoms: _542  and  _543
REMARK  220  A    between atoms: _542  and  _545
REMARK  221  A    between atoms: _545  and  _546
REMARK  222  A    between atoms: _546  and  _547
REMARK  223  A    between atoms: _547  and  _548
REMARK                            x       y       z     vdW  Elec       q    Type
REMARK                         _______ _______ _______ _____ _____    ______ ____
ROOT
ATOM      1  O   HOH     1      13.111  43.867  -4.390  0.00  0.00    +0.000 OA
ENDROOT
TORSDOF 0
REMARK  Name = ../refined-set-2016/2wzm/2wzm_pocket.pdb
REMARK  223 active torsions:
REMARK  status: ('A' for Active; 'I' for Inactive)
REMARK    1  A    between atoms: _1  and  _3
REMARK    2  A    between atoms: _3  and  _4
REMARK    3  A    between atoms: _6  and  _8
REMARK    4  A    between atoms: _8  and  _9
REMARK    5  A    between atoms: _8  and  _11
REMARK    6  A    between atoms: _11  and  _12
REMARK    7  A    between atoms: _15  and  _17
REMARK    8  A    between atoms: _17  and  _18
REMARK    9  A    between atoms: _20  and  _22
REMARK   10  A    between atoms: _22  and  _23
REMARK   11  A    between atoms: _22  and  _25
REMARK   12  A    between atoms: _28  and  _30
REMARK   13  A    between atoms: _30  and  _31
REMARK   14  A    between atoms: _33  and  _35
REMARK   15  A    between atoms: _35  and  _36
REMARK   16  A    between atoms: _35  and  _38
REMARK   17  A    between atoms: _38  and  _39
REMARK   18  A    between atoms: _39  and  _40
REMARK   19  A    between atoms: _43  and  _45
REMARK   20  A    between atoms: _45  and  _46
REMARK   21  A    between atoms: _45  and  _48
REMARK   22  A    between atoms: _48  and  _49
REMARK   23  A    between atoms: _52  and  _54
REMARK   24  A    between atoms: _54  and  _55
REMARK   25  A    between atoms: _54  and  _57
REMARK   26  A    between atoms: _57  and  _58
REMARK   27  A    between atoms: _58  and  _59
REMARK   28  A    between atoms: _62  and  _64
REMARK   29  A    between atoms: _64  and  _65
REMARK   30  A    between atoms: _64  and  _67
REMARK   31  A    between atoms: _67  and  _68
REMARK   32  A    between atoms: _68  and  _69
REMARK   33  A    between atoms: _69  and  _70
REMARK   34  A    between atoms: _79  and  _81
REMARK   35  A    between atoms: _81  and  _82
REMARK   36  A    between atoms: _81  and  _84
REMARK   37  A    between atoms: _84  and  _85
REMARK   38  A    between atoms: _87  and  _89
REMARK   39  A    between atoms: _89  and  _90
REMARK   40  A    between atoms: _89  and  _92
REMARK   41  A    between atoms: _92  and  _93
REMARK   42  A    between atoms: _98  and  _99
REMARK   43  A    between atoms: _101  and  _103
REMARK   44  A    between atoms: _103  and  _104
REMARK   45  A    between atoms: _103  and  _106
REMARK   46  A    between atoms: _106  and  _107
REMARK   47  A    between atoms: _110  and  _112
REMARK   48  A    between atoms: _112  and  _113
REMARK   49  A    between atoms: _112  and  _115
REMARK   50  A    between atoms: _115  and  _116
REMARK   51  A    between atoms: _119  and  _121
REMARK   52  A    between atoms: _121  and  _122
REMARK   53  A    between atoms: _121  and  _124
REMARK   54  A    between atoms: _124  and  _125
REMARK   55  A    between atoms: _130  and  _131
REMARK   56  A    between atoms: _133  and  _135
REMARK   57  A    between atoms: _135  and  _136
REMARK   58  A    between atoms: _135  and  _138
REMARK   59  A    between atoms: _138  and  _139
REMARK   60  A    between atoms: _144  and  _146
REMARK   61  A    between atoms: _146  and  _147
REMARK   62  A    between atoms: _146  and  _149
REMARK   63  A    between atoms: _149  and  _150
REMARK   64  A    between atoms: _150  and  _151
REMARK   65  A    between atoms: _151  and  _152
REMARK   66  A    between atoms: _152  and  _153
REMARK   67  A    between atoms: _157  and  _159
REMARK   68  A    between atoms: _159  and  _160
REMARK   69  A    between atoms: _159  and  _162
REMARK   70  A    between atoms: _162  and  _163
REMARK   71  A    between atoms: _168  and  _170
REMARK   72  A    between atoms: _170  and  _171
REMARK   73  A    between atoms: _170  and  _173
REMARK   74  A    between atoms: _173  and  _174
REMARK   75  A    between atoms: _179  and  _181
REMARK   76  A    between atoms: _181  and  _182
REMARK   77  A    between atoms: _181  and  _184
REMARK   78  A    between atoms: _184  and  _185
REMARK   79  A    between atoms: _185  and  _186
REMARK   80  A    between atoms: _191  and  _193
REMARK   81  A    between atoms: _193  and  _194
REMARK   82  A    between atoms: _193  and  _196
REMARK   83  A    between atoms: _196  and  _197
REMARK   84  A    between atoms: _200  and  _202
REMARK   85  A    between atoms: _202  and  _203
REMARK   86  A    between atoms: _202  and  _205
REMARK   87  A    between atoms: _205  and  _206
REMARK   88  A    between atoms: _206  and  _207
REMARK   89  A    between atoms: _210  and  _212
REMARK   90  A    between atoms: _212  and  _213
REMARK   91  A    between atoms: _212  and  _215
REMARK   92  A    between atoms: _215  and  _216
REMARK   93  A    between atoms: _219  and  _221
REMARK   94  A    between atoms: _221  and  _222
REMARK   95  A    between atoms: _221  and  _224
REMARK   96  A    between atoms: _224  and  _225
REMARK   97  A    between atoms: _230  and  _232
REMARK   98  A    between atoms: _232  and  _233
REMARK   99  A    between atoms: _236  and  _238
REMARK  100  A    between atoms: _238  and  _239
REMARK  101  A    between atoms: _238  and  _241
REMARK  102  A    between atoms: _241  and  _242
REMARK  103  A    between atoms: _247  and  _248
REMARK  104  A    between atoms: _250  and  _252
REMARK  105  A    between atoms: _252  and  _253
REMARK  106  A    between atoms: _256  and  _257
REMARK  107  A    between atoms: _262  and  _264
REMARK  108  A    between atoms: _264  and  _265
REMARK  109  A    between atoms: _264  and  _267
REMARK  110  A    between atoms: _267  and  _268
REMARK  111  A    between atoms: _271  and  _273
REMARK  112  A    between atoms: _273  and  _274
REMARK  113  A    between atoms: _276  and  _278
REMARK  114  A    between atoms: _278  and  _279
REMARK  115  A    between atoms: _278  and  _281
REMARK  116  A    between atoms: _284  and  _286
REMARK  117  A    between atoms: _286  and  _287
REMARK  118  A    between atoms: _289  and  _291
REMARK  119  A    between atoms: _291  and  _292
REMARK  120  A    between atoms: _291  and  _294
REMARK  121  A    between atoms: _294  and  _295
REMARK  122  A    between atoms: _295  and  _296
REMARK  123  A    between atoms: _296  and  _297
REMARK  124  A    between atoms: _306  and  _308
REMARK  125  A    between atoms: _308  and  _309
REMARK  126  A    between atoms: _308  and  _311
REMARK  127  A    between atoms: _311  and  _312
REMARK  128  A    between atoms: _315  and  _317
REMARK  129  A    between atoms: _317  and  _318
REMARK  130  A    between atoms: _317  and  _320
REMARK  131  A    between atoms: _320  and  _321
REMARK  132  A    between atoms: _324  and  _326
REMARK  133  A    between atoms: _326  and  _327
REMARK  134  A    between atoms: _326  and  _329
REMARK  135  A    between atoms: _329  and  _330
REMARK  136  A    between atoms: _333  and  _335
REMARK  137  A    between atoms: _335  and  _336
REMARK  138  A    between atoms: _339  and  _341
REMARK  139  A    between atoms: _341  and  _342
REMARK  140  A    between atoms: _345  and  _347
REMARK  141  A    between atoms: _347  and  _348
REMARK  142  A    between atoms: _347  and  _350
REMARK  143  A    between atoms: _350  and  _351
REMARK  144  A    between atoms: _351  and  _352
REMARK  145  A    between atoms: _357  and  _359
REMARK  146  A    between atoms: _359  and  _360
REMARK  147  A    between atoms: _359  and  _362
REMARK  148  A    between atoms: _362  and  _363
REMARK  149  A    between atoms: _366  and  _368
REMARK  150  A    between atoms: _368  and  _369
REMARK  151  A    between atoms: _368  and  _371
REMARK  152  A    between atoms: _371  and  _372
REMARK  153  A    between atoms: _375  and  _377
REMARK  154  A    between atoms: _377  and  _378
REMARK  155  A    between atoms: _377  and  _380
REMARK  156  A    between atoms: _383  and  _385
REMARK  157  A    between atoms: _385  and  _386
REMARK  158  A    between atoms: _385  and  _388
REMARK  159  A    between atoms: _388  and  _389
REMARK  160  A    between atoms: _392  and  _394
REMARK  161  A    between atoms: _394  and  _395
REMARK  162  A    between atoms: _394  and  _397
REMARK  163  A    between atoms: _397  and  _398
REMARK  164  A    between atoms: _400  and  _402
REMARK  165  A    between atoms: _402  and  _403
REMARK  166  A    between atoms: _402  and  _405
REMARK  167  A    between atoms: _405  and  _406
REMARK  168  A    between atoms: _406  and  _407
REMARK  169  A    between atoms: _407  and  _408
REMARK  170  A    between atoms: _417  and  _419
REMARK  171  A    between atoms: _419  and  _420
REMARK  172  A    between atoms: _419  and  _422
REMARK  173  A    between atoms: _422  and  _423
REMARK  174  A    between atoms: _425  and  _427
REMARK  175  A    between atoms: _427  and  _428
REMARK  176  A    between atoms: _431  and  _433
REMARK  177  A    between atoms: _433  and  _434
REMARK  178  A    between atoms: _433  and  _436
REMARK  179  A    between atoms: _436  and  _437
REMARK  180  A    between atoms: _443  and  _444
REMARK  181  A    between atoms: _449  and  _451
REMARK  182  A    between atoms: _451  and  _452
REMARK  183  A    between atoms: _451  and  _454
REMARK  184  A    between atoms: _454  and  _455
REMARK  185  A    between atoms: _455  and  _456
REMARK  186  A    between atoms: _459  and  _461
REMARK  187  A    between atoms: _461  and  _462
REMARK  188  A    between atoms: _461  and  _464
REMARK  189  A    between atoms: _464  and  _465
REMARK  190  A    between atoms: _465  and  _466
REMARK  191  A    between atoms: _466  and  _467
REMARK  192  A    between atoms: _476  and  _478
REMARK  193  A    between atoms: _478  and  _479
REMARK  194  A    between atoms: _478  and  _481
REMARK  195  A    between atoms: _481  and  _482
REMARK  196  A    between atoms: _485  and  _487
REMARK  197  A    between atoms: _487  and  _488
REMARK  198  A    between atoms: _491  and  _493
REMARK  199  A    between atoms: _493  and  _494
REMARK  200  A    between atoms: _493  and  _496
REMARK  201  A    between atoms: _496  and  _497
REMARK  202  A    between atoms: _499  and  _501
REMARK  203  A    between atoms: _501  and  _502
REMARK  204  A    between atoms: _501  and  _504
REMARK  205  A    between atoms: _504  and  _505
REMARK  206  A    between atoms: _510  and  _512
REMARK  207  A    between atoms: _512  and  _513
REMARK  208  A    between atoms: _512  and  _515
REMARK  209  A    between atoms: _515  and  _516
REMARK  210  A    between atoms: _519  and  _521
REMARK  211  A    between atoms: _521  and  _522
REMARK  212  A    between atoms: _521  and  _524
REMARK  213  A    between atoms: _524  and  _525
REMARK  214  A    between atoms: _528  and  _530
REMARK  215  A    between atoms: _530  and  _531
REMARK  216  A    between atoms: _530  and  _533
REMARK  217  A    between atoms: _533  and  _534
REMARK  218  A    between atoms: _540  and  _542
REMARK  219  A    between atoms: _542  and  _543
REMARK  220  A    between atoms: _542  and  _545
REMARK  221  A    between atoms: _545  and  _546
REMARK  222  A    between atoms: _546  and  _547
REMARK  223  A    between atoms: _547  and  _548
REMARK                            x       y       z     vdW  Elec       q    Type
REMARK                         _______ _______ _______ _____ _____    ______ ____
ROOT
ATOM      1  O   HOH     1       8.602  41.452 -11.339  0.00  0.00    +0.000 OA
ENDROOT
TORSDOF 0
REMARK  Name = ../refined-set-2016/2wzm/2wzm_pocket.pdb
REMARK  223 active torsions:
REMARK  status: ('A' for Active; 'I' for Inactive)
REMARK    1  A    between atoms: _1  and  _3
REMARK    2  A    between atoms: _3  and  _4
REMARK    3  A    between atoms: _6  and  _8
REMARK    4  A    between atoms: _8  and  _9
REMARK    5  A    between atoms: _8  and  _11
REMARK    6  A    between atoms: _11  and  _12
REMARK    7  A    between atoms: _15  and  _17
REMARK    8  A    between atoms: _17  and  _18
REMARK    9  A    between atoms: _20  and  _22
REMARK   10  A    between atoms: _22  and  _23
REMARK   11  A    between atoms: _22  and  _25
REMARK   12  A    between atoms: _28  and  _30
REMARK   13  A    between atoms: _30  and  _31
REMARK   14  A    between atoms: _33  and  _35
REMARK   15  A    between atoms: _35  and  _36
REMARK   16  A    between atoms: _35  and  _38
REMARK   17  A    between atoms: _38  and  _39
REMARK   18  A    between atoms: _39  and  _40
REMARK   19  A    between atoms: _43  and  _45
REMARK   20  A    between atoms: _45  and  _46
REMARK   21  A    between atoms: _45  and  _48
REMARK   22  A    between atoms: _48  and  _49
REMARK   23  A    between atoms: _52  and  _54
REMARK   24  A    between atoms: _54  and  _55
REMARK   25  A    between atoms: _54  and  _57
REMARK   26  A    between atoms: _57  and  _58
REMARK   27  A    between atoms: _58  and  _59
REMARK   28  A    between atoms: _62  and  _64
REMARK   29  A    between atoms: _64  and  _65
REMARK   30  A    between atoms: _64  and  _67
REMARK   31  A    between atoms: _67  and  _68
REMARK   32  A    between atoms: _68  and  _69
REMARK   33  A    between atoms: _69  and  _70
REMARK   34  A    between atoms: _79  and  _81
REMARK   35  A    between atoms: _81  and  _82
REMARK   36  A    between atoms: _81  and  _84
REMARK   37  A    between atoms: _84  and  _85
REMARK   38  A    between atoms: _87  and  _89
REMARK   39  A    between atoms: _89  and  _90
REMARK   40  A    between atoms: _89  and  _92
REMARK   41  A    between atoms: _92  and  _93
REMARK   42  A    between atoms: _98  and  _99
REMARK   43  A    between atoms: _101  and  _103
REMARK   44  A    between atoms: _103  and  _104
REMARK   45  A    between atoms: _103  and  _106
REMARK   46  A    between atoms: _106  and  _107
REMARK   47  A    between atoms: _110  and  _112
REMARK   48  A    between atoms: _112  and  _113
REMARK   49  A    between atoms: _112  and  _115
REMARK   50  A    between atoms: _115  and  _116
REMARK   51  A    between atoms: _119  and  _121
REMARK   52  A    between atoms: _121  and  _122
REMARK   53  A    between atoms: _121  and  _124
REMARK   54  A    between atoms: _124  and  _125
REMARK   55  A    between atoms: _130  and  _131
REMARK   56  A    between atoms: _133  and  _135
REMARK   57  A    between atoms: _135  and  _136
REMARK   58  A    between atoms: _135  and  _138
REMARK   59  A    between atoms: _138  and  _139
REMARK   60  A    between atoms: _144  and  _146
REMARK   61  A    between atoms: _146  and  _147
REMARK   62  A    between atoms: _146  and  _149
REMARK   63  A    between atoms: _149  and  _150
REMARK   64  A    between atoms: _150  and  _151
REMARK   65  A    between atoms: _151  and  _152
REMARK   66  A    between atoms: _152  and  _153
REMARK   67  A    between atoms: _157  and  _159
REMARK   68  A    between atoms: _159  and  _160
REMARK   69  A    between atoms: _159  and  _162
REMARK   70  A    between atoms: _162  and  _163
REMARK   71  A    between atoms: _168  and  _170
REMARK   72  A    between atoms: _170  and  _171
REMARK   73  A    between atoms: _170  and  _173
REMARK   74  A    between atoms: _173  and  _174
REMARK   75  A    between atoms: _179  and  _181
REMARK   76  A    between atoms: _181  and  _182
REMARK   77  A    between atoms: _181  and  _184
REMARK   78  A    between atoms: _184  and  _185
REMARK   79  A    between atoms: _185  and  _186
REMARK   80  A    between atoms: _191  and  _193
REMARK   81  A    between atoms: _193  and  _194
REMARK   82  A    between atoms: _193  and  _196
REMARK   83  A    between atoms: _196  and  _197
REMARK   84  A    between atoms: _200  and  _202
REMARK   85  A    between atoms: _202  and  _203
REMARK   86  A    between atoms: _202  and  _205
REMARK   87  A    between atoms: _205  and  _206
REMARK   88  A    between atoms: _206  and  _207
REMARK   89  A    between atoms: _210  and  _212
REMARK   90  A    between atoms: _212  and  _213
REMARK   91  A    between atoms: _212  and  _215
REMARK   92  A    between atoms: _215  and  _216
REMARK   93  A    between atoms: _219  and  _221
REMARK   94  A    between atoms: _221  and  _222
REMARK   95  A    between atoms: _221  and  _224
REMARK   96  A    between atoms: _224  and  _225
REMARK   97  A    between atoms: _230  and  _232
REMARK   98  A    between atoms: _232  and  _233
REMARK   99  A    between atoms: _236  and  _238
REMARK  100  A    between atoms: _238  and  _239
REMARK  101  A    between atoms: _238  and  _241
REMARK  102  A    between atoms: _241  and  _242
REMARK  103  A    between atoms: _247  and  _248
REMARK  104  A    between atoms: _250  and  _252
REMARK  105  A    between atoms: _252  and  _253
REMARK  106  A    between atoms: _256  and  _257
REMARK  107  A    between atoms: _262  and  _264
REMARK  108  A    between atoms: _264  and  _265
REMARK  109  A    between atoms: _264  and  _267
REMARK  110  A    between atoms: _267  and  _268
REMARK  111  A    between atoms: _271  and  _273
REMARK  112  A    between atoms: _273  and  _274
REMARK  113  A    between atoms: _276  and  _278
REMARK  114  A    between atoms: _278  and  _279
REMARK  115  A    between atoms: _278  and  _281
REMARK  116  A    between atoms: _284  and  _286
REMARK  117  A    between atoms: _286  and  _287
REMARK  118  A    between atoms: _289  and  _291
REMARK  119  A    between atoms: _291  and  _292
REMARK  120  A    between atoms: _291  and  _294
REMARK  121  A    between atoms: _294  and  _295
REMARK  122  A    between atoms: _295  and  _296
REMARK  123  A    between atoms: _296  and  _297
REMARK  124  A    between atoms: _306  and  _308
REMARK  125  A    between atoms: _308  and  _309
REMARK  126  A    between atoms: _308  and  _311
REMARK  127  A    between atoms: _311  and  _312
REMARK  128  A    between atoms: _315  and  _317
REMARK  129  A    between atoms: _317  and  _318
REMARK  130  A    between atoms: _317  and  _320
REMARK  131  A    between atoms: _320  and  _321
REMARK  132  A    between atoms: _324  and  _326
REMARK  133  A    between atoms: _326  and  _327
REMARK  134  A    between atoms: _326  and  _329
REMARK  135  A    between atoms: _329  and  _330
REMARK  136  A    between atoms: _333  and  _335
REMARK  137  A    between atoms: _335  and  _336
REMARK  138  A    between atoms: _339  and  _341
REMARK  139  A    between atoms: _341  and  _342
REMARK  140  A    between atoms: _345  and  _347
REMARK  141  A    between atoms: _347  and  _348
REMARK  142  A    between atoms: _347  and  _350
REMARK  143  A    between atoms: _350  and  _351
REMARK  144  A    between atoms: _351  and  _352
REMARK  145  A    between atoms: _357  and  _359
REMARK  146  A    between atoms: _359  and  _360
REMARK  147  A    between atoms: _359  and  _362
REMARK  148  A    between atoms: _362  and  _363
REMARK  149  A    between atoms: _366  and  _368
REMARK  150  A    between atoms: _368  and  _369
REMARK  151  A    between atoms: _368  and  _371
REMARK  152  A    between atoms: _371  and  _372
REMARK  153  A    between atoms: _375  and  _377
REMARK  154  A    between atoms: _377  and  _378
REMARK  155  A    between atoms: _377  and  _380
REMARK  156  A    between atoms: _383  and  _385
REMARK  157  A    between atoms: _385  and  _386
REMARK  158  A    between atoms: _385  and  _388
REMARK  159  A    between atoms: _388  and  _389
REMARK  160  A    between atoms: _392  and  _394
REMARK  161  A    between atoms: _394  and  _395
REMARK  162  A    between atoms: _394  and  _397
REMARK  163  A    between atoms: _397  and  _398
REMARK  164  A    between atoms: _400  and  _402
REMARK  165  A    between atoms: _402  and  _403
REMARK  166  A    between atoms: _402  and  _405
REMARK  167  A    between atoms: _405  and  _406
REMARK  168  A    between atoms: _406  and  _407
REMARK  169  A    between atoms: _407  and  _408
REMARK  170  A    between atoms: _417  and  _419
REMARK  171  A    between atoms: _419  and  _420
REMARK  172  A    between atoms: _419  and  _422
REMARK  173  A    between atoms: _422  and  _423
REMARK  174  A    between atoms: _425  and  _427
REMARK  175  A    between atoms: _427  and  _428
REMARK  176  A    between atoms: _431  and  _433
REMARK  177  A    between atoms: _433  and  _434
REMARK  178  A    between atoms: _433  and  _436
REMARK  179  A    between atoms: _436  and  _437
REMARK  180  A    between atoms: _443  and  _444
REMARK  181  A    between atoms: _449  and  _451
REMARK  182  A    between atoms: _451  and  _452
REMARK  183  A    between atoms: _451  and  _454
REMARK  184  A    between atoms: _454  and  _455
REMARK  185  A    between atoms: _455  and  _456
REMARK  186  A    between atoms: _459  and  _461
REMARK  187  A    between atoms: _461  and  _462
REMARK  188  A    between atoms: _461  and  _464
REMARK  189  A    between atoms: _464  and  _465
REMARK  190  A    between atoms: _465  and  _466
REMARK  191  A    between atoms: _466  and  _467
REMARK  192  A    between atoms: _476  and  _478
REMARK  193  A    between atoms: _478  and  _479
REMARK  194  A    between atoms: _478  and  _481
REMARK  195  A    between atoms: _481  and  _482
REMARK  196  A    between atoms: _485  and  _487
REMARK  197  A    between atoms: _487  and  _488
REMARK  198  A    between atoms: _491  and  _493
REMARK  199  A    between atoms: _493  and  _494
REMARK  200  A    between atoms: _493  and  _496
REMARK  201  A    between atoms: _496  and  _497
REMARK  202  A    between atoms: _499  and  _501
REMARK  203  A    between atoms: _501  and  _502
REMARK  204  A    between atoms: _501  and  _504
REMARK  205  A    between atoms: _504  and  _505
REMARK  206  A    between atoms: _510  and  _512
REMARK  207  A    between atoms: _512  and  _513
REMARK  208  A    between atoms: _512  and  _515
REMARK  209  A    between atoms: _515  and  _516
REMARK  210  A    between atoms: _519  and  _521
REMARK  211  A    between atoms: _521  and  _522
REMARK  212  A    between atoms: _521  and  _524
REMARK  213  A    between atoms: _524  and  _525
REMARK  214  A    between atoms: _528  and  _530
REMARK  215  A    between atoms: _530  and  _531
REMARK  216  A    between atoms: _530  and  _533
REMARK  217  A    between atoms: _533  and  _534
REMARK  218  A    between atoms: _540  and  _542
REMARK  219  A    between atoms: _542  and  _543
REMARK  220  A    between atoms: _542  and  _545
REMARK  221  A    between atoms: _545  and  _546
REMARK  222  A    between atoms: _546  and  _547
REMARK  223  A    between atoms: _547  and  _548
REMARK                            x       y       z     vdW  Elec       q    Type
REMARK                         _______ _______ _______ _____ _____    ______ ____
ROOT
ATOM      1  O   HOH     1       9.158  39.391  -3.832  0.00  0.00    +0.000 OA
ENDROOT
TORSDOF 0
REMARK  Name = ../refined-set-2016/2wzm/2wzm_pocket.pdb
REMARK  223 active torsions:
REMARK  status: ('A' for Active; 'I' for Inactive)
REMARK    1  A    between atoms: _1  and  _3
REMARK    2  A    between atoms: _3  and  _4
REMARK    3  A    between atoms: _6  and  _8
REMARK    4  A    between atoms: _8  and  _9
REMARK    5  A    between atoms: _8  and  _11
REMARK    6  A    between atoms: _11  and  _12
REMARK    7  A    between atoms: _15  and  _17
REMARK    8  A    between atoms: _17  and  _18
REMARK    9  A    between atoms: _20  and  _22
REMARK   10  A    between atoms: _22  and  _23
REMARK   11  A    between atoms: _22  and  _25
REMARK   12  A    between atoms: _28  and  _30
REMARK   13  A    between atoms: _30  and  _31
REMARK   14  A    between atoms: _33  and  _35
REMARK   15  A    between atoms: _35  and  _36
REMARK   16  A    between atoms: _35  and  _38
REMARK   17  A    between atoms: _38  and  _39
REMARK   18  A    between atoms: _39  and  _40
REMARK   19  A    between atoms: _43  and  _45
REMARK   20  A    between atoms: _45  and  _46
REMARK   21  A    between atoms: _45  and  _48
REMARK   22  A    between atoms: _48  and  _49
REMARK   23  A    between atoms: _52  and  _54
REMARK   24  A    between atoms: _54  and  _55
REMARK   25  A    between atoms: _54  and  _57
REMARK   26  A    between atoms: _57  and  _58
REMARK   27  A    between atoms: _58  and  _59
REMARK   28  A    between atoms: _62  and  _64
REMARK   29  A    between atoms: _64  and  _65
REMARK   30  A    between atoms: _64  and  _67
REMARK   31  A    between atoms: _67  and  _68
REMARK   32  A    between atoms: _68  and  _69
REMARK   33  A    between atoms: _69  and  _70
REMARK   34  A    between atoms: _79  and  _81
REMARK   35  A    between atoms: _81  and  _82
REMARK   36  A    between atoms: _81  and  _84
REMARK   37  A    between atoms: _84  and  _85
REMARK   38  A    between atoms: _87  and  _89
REMARK   39  A    between atoms: _89  and  _90
REMARK   40  A    between atoms: _89  and  _92
REMARK   41  A    between atoms: _92  and  _93
REMARK   42  A    between atoms: _98  and  _99
REMARK   43  A    between atoms: _101  and  _103
REMARK   44  A    between atoms: _103  and  _104
REMARK   45  A    between atoms: _103  and  _106
REMARK   46  A    between atoms: _106  and  _107
REMARK   47  A    between atoms: _110  and  _112
REMARK   48  A    between atoms: _112  and  _113
REMARK   49  A    between atoms: _112  and  _115
REMARK   50  A    between atoms: _115  and  _116
REMARK   51  A    between atoms: _119  and  _121
REMARK   52  A    between atoms: _121  and  _122
REMARK   53  A    between atoms: _121  and  _124
REMARK   54  A    between atoms: _124  and  _125
REMARK   55  A    between atoms: _130  and  _131
REMARK   56  A    between atoms: _133  and  _135
REMARK   57  A    between atoms: _135  and  _136
REMARK   58  A    between atoms: _135  and  _138
REMARK   59  A    between atoms: _138  and  _139
REMARK   60  A    between atoms: _144  and  _146
REMARK   61  A    between atoms: _146  and  _147
REMARK   62  A    between atoms: _146  and  _149
REMARK   63  A    between atoms: _149  and  _150
REMARK   64  A    between atoms: _150  and  _151
REMARK   65  A    between atoms: _151  and  _152
REMARK   66  A    between atoms: _152  and  _153
REMARK   67  A    between atoms: _157  and  _159
REMARK   68  A    between atoms: _159  and  _160
REMARK   69  A    between atoms: _159  and  _162
REMARK   70  A    between atoms: _162  and  _163
REMARK   71  A    between atoms: _168  and  _170
REMARK   72  A    between atoms: _170  and  _171
REMARK   73  A    between atoms: _170  and  _173
REMARK   74  A    between atoms: _173  and  _174
REMARK   75  A    between atoms: _179  and  _181
REMARK   76  A    between atoms: _181  and  _182
REMARK   77  A    between atoms: _181  and  _184
REMARK   78  A    between atoms: _184  and  _185
REMARK   79  A    between atoms: _185  and  _186
REMARK   80  A    between atoms: _191  and  _193
REMARK   81  A    between atoms: _193  and  _194
REMARK   82  A    between atoms: _193  and  _196
REMARK   83  A    between atoms: _196  and  _197
REMARK   84  A    between atoms: _200  and  _202
REMARK   85  A    between atoms: _202  and  _203
REMARK   86  A    between atoms: _202  and  _205
REMARK   87  A    between atoms: _205  and  _206
REMARK   88  A    between atoms: _206  and  _207
REMARK   89  A    between atoms: _210  and  _212
REMARK   90  A    between atoms: _212  and  _213
REMARK   91  A    between atoms: _212  and  _215
REMARK   92  A    between atoms: _215  and  _216
REMARK   93  A    between atoms: _219  and  _221
REMARK   94  A    between atoms: _221  and  _222
REMARK   95  A    between atoms: _221  and  _224
REMARK   96  A    between atoms: _224  and  _225
REMARK   97  A    between atoms: _230  and  _232
REMARK   98  A    between atoms: _232  and  _233
REMARK   99  A    between atoms: _236  and  _238
REMARK  100  A    between atoms: _238  and  _239
REMARK  101  A    between atoms: _238  and  _241
REMARK  102  A    between atoms: _241  and  _242
REMARK  103  A    between atoms: _247  and  _248
REMARK  104  A    between atoms: _250  and  _252
REMARK  105  A    between atoms: _252  and  _253
REMARK  106  A    between atoms: _256  and  _257
REMARK  107  A    between atoms: _262  and  _264
REMARK  108  A    between atoms: _264  and  _265
REMARK  109  A    between atoms: _264  and  _267
REMARK  110  A    between atoms: _267  and  _268
REMARK  111  A    between atoms: _271  and  _273
REMARK  112  A    between atoms: _273  and  _274
REMARK  113  A    between atoms: _276  and  _278
REMARK  114  A    between atoms: _278  and  _279
REMARK  115  A    between atoms: _278  and  _281
REMARK  116  A    between atoms: _284  and  _286
REMARK  117  A    between atoms: _286  and  _287
REMARK  118  A    between atoms: _289  and  _291
REMARK  119  A    between atoms: _291  and  _292
REMARK  120  A    between atoms: _291  and  _294
REMARK  121  A    between atoms: _294  and  _295
REMARK  122  A    between atoms: _295  and  _296
REMARK  123  A    between atoms: _296  and  _297
REMARK  124  A    between atoms: _306  and  _308
REMARK  125  A    between atoms: _308  and  _309
REMARK  126  A    between atoms: _308  and  _311
REMARK  127  A    between atoms: _311  and  _312
REMARK  128  A    between atoms: _315  and  _317
REMARK  129  A    between atoms: _317  and  _318
REMARK  130  A    between atoms: _317  and  _320
REMARK  131  A    between atoms: _320  and  _321
REMARK  132  A    between atoms: _324  and  _326
REMARK  133  A    between atoms: _326  and  _327
REMARK  134  A    between atoms: _326  and  _329
REMARK  135  A    between atoms: _329  and  _330
REMARK  136  A    between atoms: _333  and  _335
REMARK  137  A    between atoms: _335  and  _336
REMARK  138  A    between atoms: _339  and  _341
REMARK  139  A    between atoms: _341  and  _342
REMARK  140  A    between atoms: _345  and  _347
REMARK  141  A    between atoms: _347  and  _348
REMARK  142  A    between atoms: _347  and  _350
REMARK  143  A    between atoms: _350  and  _351
REMARK  144  A    between atoms: _351  and  _352
REMARK  145  A    between atoms: _357  and  _359
REMARK  146  A    between atoms: _359  and  _360
REMARK  147  A    between atoms: _359  and  _362
REMARK  148  A    between atoms: _362  and  _363
REMARK  149  A    between atoms: _366  and  _368
REMARK  150  A    between atoms: _368  and  _369
REMARK  151  A    between atoms: _368  and  _371
REMARK  152  A    between atoms: _371  and  _372
REMARK  153  A    between atoms: _375  and  _377
REMARK  154  A    between atoms: _377  and  _378
REMARK  155  A    between atoms: _377  and  _380
REMARK  156  A    between atoms: _383  and  _385
REMARK  157  A    between atoms: _385  and  _386
REMARK  158  A    between atoms: _385  and  _388
REMARK  159  A    between atoms: _388  and  _389
REMARK  160  A    between atoms: _392  and  _394
REMARK  161  A    between atoms: _394  and  _395
REMARK  162  A    between atoms: _394  and  _397
REMARK  163  A    between atoms: _397  and  _398
REMARK  164  A    between atoms: _400  and  _402
REMARK  165  A    between atoms: _402  and  _403
REMARK  166  A    between atoms: _402  and  _405
REMARK  167  A    between atoms: _405  and  _406
REMARK  168  A    between atoms: _406  and  _407
REMARK  169  A    between atoms: _407  and  _408
REMARK  170  A    between atoms: _417  and  _419
REMARK  171  A    between atoms: _419  and  _420
REMARK  172  A    between atoms: _419  and  _422
REMARK  173  A    between atoms: _422  and  _423
REMARK  174  A    between atoms: _425  and  _427
REMARK  175  A    between atoms: _427  and  _428
REMARK  176  A    between atoms: _431  and  _433
REMARK  177  A    between atoms: _433  and  _434
REMARK  178  A    between atoms: _433  and  _436
REMARK  179  A    between atoms: _436  and  _437
REMARK  180  A    between atoms: _443  and  _444
REMARK  181  A    between atoms: _449  and  _451
REMARK  182  A    between atoms: _451  and  _452
REMARK  183  A    between atoms: _451  and  _454
REMARK  184  A    between atoms: _454  and  _455
REMARK  185  A    between atoms: _455  and  _456
REMARK  186  A    between atoms: _459  and  _461
REMARK  187  A    between atoms: _461  and  _462
REMARK  188  A    between atoms: _461  and  _464
REMARK  189  A    between atoms: _464  and  _465
REMARK  190  A    between atoms: _465  and  _466
REMARK  191  A    between atoms: _466  and  _467
REMARK  192  A    between atoms: _476  and  _478
REMARK  193  A    between atoms: _478  and  _479
REMARK  194  A    between atoms: _478  and  _481
REMARK  195  A    between atoms: _481  and  _482
REMARK  196  A    between atoms: _485  and  _487
REMARK  197  A    between atoms: _487  and  _488
REMARK  198  A    between atoms: _491  and  _493
REMARK  199  A    between atoms: _493  and  _494
REMARK  200  A    between atoms: _493  and  _496
REMARK  201  A    between atoms: _496  and  _497
REMARK  202  A    between atoms: _499  and  _501
REMARK  203  A    between atoms: _501  and  _502
REMARK  204  A    between atoms: _501  and  _504
REMARK  205  A    between atoms: _504  and  _505
REMARK  206  A    between atoms: _510  and  _512
REMARK  207  A    between atoms: _512  and  _513
REMARK  208  A    between atoms: _512  and  _515
REMARK  209  A    between atoms: _515  and  _516
REMARK  210  A    between atoms: _519  and  _521
REMARK  211  A    between atoms: _521  and  _522
REMARK  212  A    between atoms: _521  and  _524
REMARK  213  A    between atoms: _524  and  _525
REMARK  214  A    between atoms: _528  and  _530
REMARK  215  A    between atoms: _530  and  _531
REMARK  216  A    between atoms: _530  and  _533
REMARK  217  A    between atoms: _533  and  _534
REMARK  218  A    between atoms: _540  and  _542
REMARK  219  A    between atoms: _542  and  _543
REMARK  220  A    between atoms: _542  and  _545
REMARK  221  A    between atoms: _545  and  _546
REMARK  222  A    between atoms: _546  and  _547
REMARK  223  A    between atoms: _547  and  _548
REMARK                            x       y       z     vdW  Elec       q    Type
REMARK                         _______ _______ _______ _____ _____    ______ ____
ROOT
ATOM      1  O   HOH     1       9.281  48.941  -5.329  0.00  0.00    +0.000 OA
ENDROOT
TORSDOF 0
REMARK  Name = ../refined-set-2016/2wzm/2wzm_pocket.pdb
REMARK  223 active torsions:
REMARK  status: ('A' for Active; 'I' for Inactive)
REMARK    1  A    between atoms: _1  and  _3
REMARK    2  A    between atoms: _3  and  _4
REMARK    3  A    between atoms: _6  and  _8
REMARK    4  A    between atoms: _8  and  _9
REMARK    5  A    between atoms: _8  and  _11
REMARK    6  A    between atoms: _11  and  _12
REMARK    7  A    between atoms: _15  and  _17
REMARK    8  A    between atoms: _17  and  _18
REMARK    9  A    between atoms: _20  and  _22
REMARK   10  A    between atoms: _22  and  _23
REMARK   11  A    between atoms: _22  and  _25
REMARK   12  A    between atoms: _28  and  _30
REMARK   13  A    between atoms: _30  and  _31
REMARK   14  A    between atoms: _33  and  _35
REMARK   15  A    between atoms: _35  and  _36
REMARK   16  A    between atoms: _35  and  _38
REMARK   17  A    between atoms: _38  and  _39
REMARK   18  A    between atoms: _39  and  _40
REMARK   19  A    between atoms: _43  and  _45
REMARK   20  A    between atoms: _45  and  _46
REMARK   21  A    between atoms: _45  and  _48
REMARK   22  A    between atoms: _48  and  _49
REMARK   23  A    between atoms: _52  and  _54
REMARK   24  A    between atoms: _54  and  _55
REMARK   25  A    between atoms: _54  and  _57
REMARK   26  A    between atoms: _57  and  _58
REMARK   27  A    between atoms: _58  and  _59
REMARK   28  A    between atoms: _62  and  _64
REMARK   29  A    between atoms: _64  and  _65
REMARK   30  A    between atoms: _64  and  _67
REMARK   31  A    between atoms: _67  and  _68
REMARK   32  A    between atoms: _68  and  _69
REMARK   33  A    between atoms: _69  and  _70
REMARK   34  A    between atoms: _79  and  _81
REMARK   35  A    between atoms: _81  and  _82
REMARK   36  A    between atoms: _81  and  _84
REMARK   37  A    between atoms: _84  and  _85
REMARK   38  A    between atoms: _87  and  _89
REMARK   39  A    between atoms: _89  and  _90
REMARK   40  A    between atoms: _89  and  _92
REMARK   41  A    between atoms: _92  and  _93
REMARK   42  A    between atoms: _98  and  _99
REMARK   43  A    between atoms: _101  and  _103
REMARK   44  A    between atoms: _103  and  _104
REMARK   45  A    between atoms: _103  and  _106
REMARK   46  A    between atoms: _106  and  _107
REMARK   47  A    between atoms: _110  and  _112
REMARK   48  A    between atoms: _112  and  _113
REMARK   49  A    between atoms: _112  and  _115
REMARK   50  A    between atoms: _115  and  _116
REMARK   51  A    between atoms: _119  and  _121
REMARK   52  A    between atoms: _121  and  _122
REMARK   53  A    between atoms: _121  and  _124
REMARK   54  A    between atoms: _124  and  _125
REMARK   55  A    between atoms: _130  and  _131
REMARK   56  A    between atoms: _133  and  _135
REMARK   57  A    between atoms: _135  and  _136
REMARK   58  A    between atoms: _135  and  _138
REMARK   59  A    between atoms: _138  and  _139
REMARK   60  A    between atoms: _144  and  _146
REMARK   61  A    between atoms: _146  and  _147
REMARK   62  A    between atoms: _146  and  _149
REMARK   63  A    between atoms: _149  and  _150
REMARK   64  A    between atoms: _150  and  _151
REMARK   65  A    between atoms: _151  and  _152
REMARK   66  A    between atoms: _152  and  _153
REMARK   67  A    between atoms: _157  and  _159
REMARK   68  A    between atoms: _159  and  _160
REMARK   69  A    between atoms: _159  and  _162
REMARK   70  A    between atoms: _162  and  _163
REMARK   71  A    between atoms: _168  and  _170
REMARK   72  A    between atoms: _170  and  _171
REMARK   73  A    between atoms: _170  and  _173
REMARK   74  A    between atoms: _173  and  _174
REMARK   75  A    between atoms: _179  and  _181
REMARK   76  A    between atoms: _181  and  _182
REMARK   77  A    between atoms: _181  and  _184
REMARK   78  A    between atoms: _184  and  _185
REMARK   79  A    between atoms: _185  and  _186
REMARK   80  A    between atoms: _191  and  _193
REMARK   81  A    between atoms: _193  and  _194
REMARK   82  A    between atoms: _193  and  _196
REMARK   83  A    between atoms: _196  and  _197
REMARK   84  A    between atoms: _200  and  _202
REMARK   85  A    between atoms: _202  and  _203
REMARK   86  A    between atoms: _202  and  _205
REMARK   87  A    between atoms: _205  and  _206
REMARK   88  A    between atoms: _206  and  _207
REMARK   89  A    between atoms: _210  and  _212
REMARK   90  A    between atoms: _212  and  _213
REMARK   91  A    between atoms: _212  and  _215
REMARK   92  A    between atoms: _215  and  _216
REMARK   93  A    between atoms: _219  and  _221
REMARK   94  A    between atoms: _221  and  _222
REMARK   95  A    between atoms: _221  and  _224
REMARK   96  A    between atoms: _224  and  _225
REMARK   97  A    between atoms: _230  and  _232
REMARK   98  A    between atoms: _232  and  _233
REMARK   99  A    between atoms: _236  and  _238
REMARK  100  A    between atoms: _238  and  _239
REMARK  101  A    between atoms: _238  and  _241
REMARK  102  A    between atoms: _241  and  _242
REMARK  103  A    between atoms: _247  and  _248
REMARK  104  A    between atoms: _250  and  _252
REMARK  105  A    between atoms: _252  and  _253
REMARK  106  A    between atoms: _256  and  _257
REMARK  107  A    between atoms: _262  and  _264
REMARK  108  A    between atoms: _264  and  _265
REMARK  109  A    between atoms: _264  and  _267
REMARK  110  A    between atoms: _267  and  _268
REMARK  111  A    between atoms: _271  and  _273
REMARK  112  A    between atoms: _273  and  _274
REMARK  113  A    between atoms: _276  and  _278
REMARK  114  A    between atoms: _278  and  _279
REMARK  115  A    between atoms: _278  and  _281
REMARK  116  A    between atoms: _284  and  _286
REMARK  117  A    between atoms: _286  and  _287
REMARK  118  A    between atoms: _289  and  _291
REMARK  119  A    between atoms: _291  and  _292
REMARK  120  A    between atoms: _291  and  _294
REMARK  121  A    between atoms: _294  and  _295
REMARK  122  A    between atoms: _295  and  _296
REMARK  123  A    between atoms: _296  and  _297
REMARK  124  A    between atoms: _306  and  _308
REMARK  125  A    between atoms: _308  and  _309
REMARK  126  A    between atoms: _308  and  _311
REMARK  127  A    between atoms: _311  and  _312
REMARK  128  A    between atoms: _315  and  _317
REMARK  129  A    between atoms: _317  and  _318
REMARK  130  A    between atoms: _317  and  _320
REMARK  131  A    between atoms: _320  and  _321
REMARK  132  A    between atoms: _324  and  _326
REMARK  133  A    between atoms: _326  and  _327
REMARK  134  A    between atoms: _326  and  _329
REMARK  135  A    between atoms: _329  and  _330
REMARK  136  A    between atoms: _333  and  _335
REMARK  137  A    between atoms: _335  and  _336
REMARK  138  A    between atoms: _339  and  _341
REMARK  139  A    between atoms: _341  and  _342
REMARK  140  A    between atoms: _345  and  _347
REMARK  141  A    between atoms: _347  and  _348
REMARK  142  A    between atoms: _347  and  _350
REMARK  143  A    between atoms: _350  and  _351
REMARK  144  A    between atoms: _351  and  _352
REMARK  145  A    between atoms: _357  and  _359
REMARK  146  A    between atoms: _359  and  _360
REMARK  147  A    between atoms: _359  and  _362
REMARK  148  A    between atoms: _362  and  _363
REMARK  149  A    between atoms: _366  and  _368
REMARK  150  A    between atoms: _368  and  _369
REMARK  151  A    between atoms: _368  and  _371
REMARK  152  A    between atoms: _371  and  _372
REMARK  153  A    between atoms: _375  and  _377
REMARK  154  A    between atoms: _377  and  _378
REMARK  155  A    between atoms: _377  and  _380
REMARK  156  A    between atoms: _383  and  _385
REMARK  157  A    between atoms: _385  and  _386
REMARK  158  A    between atoms: _385  and  _388
REMARK  159  A    between atoms: _388  and  _389
REMARK  160  A    between atoms: _392  and  _394
REMARK  161  A    between atoms: _394  and  _395
REMARK  162  A    between atoms: _394  and  _397
REMARK  163  A    between atoms: _397  and  _398
REMARK  164  A    between atoms: _400  and  _402
REMARK  165  A    between atoms: _402  and  _403
REMARK  166  A    between atoms: _402  and  _405
REMARK  167  A    between atoms: _405  and  _406
REMARK  168  A    between atoms: _406  and  _407
REMARK  169  A    between atoms: _407  and  _408
REMARK  170  A    between atoms: _417  and  _419
REMARK  171  A    between atoms: _419  and  _420
REMARK  172  A    between atoms: _419  and  _422
REMARK  173  A    between atoms: _422  and  _423
REMARK  174  A    between atoms: _425  and  _427
REMARK  175  A    between atoms: _427  and  _428
REMARK  176  A    between atoms: _431  and  _433
REMARK  177  A    between atoms: _433  and  _434
REMARK  178  A    between atoms: _433  and  _436
REMARK  179  A    between atoms: _436  and  _437
REMARK  180  A    between atoms: _443  and  _444
REMARK  181  A    between atoms: _449  and  _451
REMARK  182  A    between atoms: _451  and  _452
REMARK  183  A    between atoms: _451  and  _454
REMARK  184  A    between atoms: _454  and  _455
REMARK  185  A    between atoms: _455  and  _456
REMARK  186  A    between atoms: _459  and  _461
REMARK  187  A    between atoms: _461  and  _462
REMARK  188  A    between atoms: _461  and  _464
REMARK  189  A    between atoms: _464  and  _465
REMARK  190  A    between atoms: _465  and  _466
REMARK  191  A    between atoms: _466  and  _467
REMARK  192  A    between atoms: _476  and  _478
REMARK  193  A    between atoms: _478  and  _479
REMARK  194  A    between atoms: _478  and  _481
REMARK  195  A    between atoms: _481  and  _482
REMARK  196  A    between atoms: _485  and  _487
REMARK  197  A    between atoms: _487  and  _488
REMARK  198  A    between atoms: _491  and  _493
REMARK  199  A    between atoms: _493  and  _494
REMARK  200  A    between atoms: _493  and  _496
REMARK  201  A    between atoms: _496  and  _497
REMARK  202  A    between atoms: _499  and  _501
REMARK  203  A    between atoms: _501  and  _502
REMARK  204  A    between atoms: _501  and  _504
REMARK  205  A    between atoms: _504  and  _505
REMARK  206  A    between atoms: _510  and  _512
REMARK  207  A    between atoms: _512  and  _513
REMARK  208  A    between atoms: _512  and  _515
REMARK  209  A    between atoms: _515  and  _516
REMARK  210  A    between atoms: _519  and  _521
REMARK  211  A    between atoms: _521  and  _522
REMARK  212  A    between atoms: _521  and  _524
REMARK  213  A    between atoms: _524  and  _525
REMARK  214  A    between atoms: _528  and  _530
REMARK  215  A    between atoms: _530  and  _531
REMARK  216  A    between atoms: _530  and  _533
REMARK  217  A    between atoms: _533  and  _534
REMARK  218  A    between atoms: _540  and  _542
REMARK  219  A    between atoms: _542  and  _543
REMARK  220  A    between atoms: _542  and  _545
REMARK  221  A    between atoms: _545  and  _546
REMARK  222  A    between atoms: _546  and  _547
REMARK  223  A    between atoms: _547  and  _548
REMARK                            x       y       z     vdW  Elec       q    Type
REMARK                         _______ _______ _______ _____ _____    ______ ____
ROOT
ATOM      1  O   HOH     1      16.651  40.592  -8.754  0.00  0.00    +0.000 OA
ENDROOT
TORSDOF 0
