REMARK  Name = ../refined-set-2016/3ivx/3ivx_pocket.pdb
REMARK  222 active torsions:
REMARK  status: ('A' for Active; 'I' for Inactive)
REMARK    1  A    between atoms: _1  and  _3
REMARK    2  A    between atoms: _3  and  _4
REMARK    3  A    between atoms: _3  and  _6
REMARK    4  A    between atoms: _6  and  _7
REMARK    5  A    between atoms: _10  and  _12
REMARK    6  A    between atoms: _12  and  _13
REMARK    7  A    between atoms: _12  and  _15
REMARK    8  A    between atoms: _19  and  _20
REMARK    9  A    between atoms: _25  and  _27
REMARK   10  A    between atoms: _27  and  _28
REMARK   11  A    between atoms: _27  and  _30
REMARK   12  A    between atoms: _30  and  _31
REMARK   13  A    between atoms: _34  and  _36
REMARK   14  A    between atoms: _36  and  _37
REMARK   15  A    between atoms: _36  and  _39
REMARK   16  A    between atoms: _39  and  _40
REMARK   17  A    between atoms: _40  and  _41
REMARK   18  A    between atoms: _43  and  _45
REMARK   19  A    between atoms: _45  and  _46
REMARK   20  A    between atoms: _48  and  _50
REMARK   21  A    between atoms: _50  and  _51
REMARK   22  A    between atoms: _54  and  _56
REMARK   23  A    between atoms: _56  and  _57
REMARK   24  A    between atoms: _56  and  _59
REMARK   25  A    between atoms: _59  and  _60
REMARK   26  A    between atoms: _63  and  _65
REMARK   27  A    between atoms: _65  and  _66
REMARK   28  A    between atoms: _65  and  _68
REMARK   29  A    between atoms: _68  and  _69
REMARK   30  A    between atoms: _74  and  _76
REMARK   31  A    between atoms: _76  and  _77
REMARK   32  A    between atoms: _76  and  _79
REMARK   33  A    between atoms: _79  and  _80
REMARK   34  A    between atoms: _80  and  _81
REMARK   35  A    between atoms: _84  and  _86
REMARK   36  A    between atoms: _86  and  _87
REMARK   37  A    between atoms: _89  and  _91
REMARK   38  A    between atoms: _91  and  _92
REMARK   39  A    between atoms: _91  and  _94
REMARK   40  A    between atoms: _94  and  _95
REMARK   41  A    between atoms: _100  and  _102
REMARK   42  A    between atoms: _102  and  _103
REMARK   43  A    between atoms: _102  and  _105
REMARK   44  A    between atoms: _105  and  _106
REMARK   45  A    between atoms: _109  and  _111
REMARK   46  A    between atoms: _111  and  _112
REMARK   47  A    between atoms: _115  and  _117
REMARK   48  A    between atoms: _117  and  _118
REMARK   49  A    between atoms: _117  and  _120
REMARK   50  A    between atoms: _120  and  _121
REMARK   51  A    between atoms: _124  and  _126
REMARK   52  A    between atoms: _126  and  _127
REMARK   53  A    between atoms: _126  and  _129
REMARK   54  A    between atoms: _132  and  _134
REMARK   55  A    between atoms: _134  and  _135
REMARK   56  A    between atoms: _138  and  _140
REMARK   57  A    between atoms: _140  and  _141
REMARK   58  A    between atoms: _140  and  _143
REMARK   59  A    between atoms: _143  and  _144
REMARK   60  A    between atoms: _146  and  _148
REMARK   61  A    between atoms: _148  and  _149
REMARK   62  A    between atoms: _148  and  _151
REMARK   63  A    between atoms: _151  and  _152
REMARK   64  A    between atoms: _155  and  _157
REMARK   65  A    between atoms: _157  and  _158
REMARK   66  A    between atoms: _157  and  _160
REMARK   67  A    between atoms: _160  and  _161
REMARK   68  A    between atoms: _167  and  _169
REMARK   69  A    between atoms: _169  and  _170
REMARK   70  A    between atoms: _169  and  _172
REMARK   71  A    between atoms: _175  and  _177
REMARK   72  A    between atoms: _177  and  _178
REMARK   73  A    between atoms: _177  and  _180
REMARK   74  A    between atoms: _180  and  _181
REMARK   75  A    between atoms: _186  and  _188
REMARK   76  A    between atoms: _188  and  _189
REMARK   77  A    between atoms: _188  and  _191
REMARK   78  A    between atoms: _191  and  _192
REMARK   79  A    between atoms: _192  and  _193
REMARK   80  A    between atoms: _198  and  _200
REMARK   81  A    between atoms: _200  and  _201
REMARK   82  A    between atoms: _200  and  _203
REMARK   83  A    between atoms: _203  and  _204
REMARK   84  A    between atoms: _209  and  _210
REMARK   85  A    between atoms: _213  and  _214
REMARK   86  A    between atoms: _219  and  _221
REMARK   87  A    between atoms: _221  and  _222
REMARK   88  A    between atoms: _224  and  _226
REMARK   89  A    between atoms: _226  and  _227
REMARK   90  A    between atoms: _226  and  _229
REMARK   91  A    between atoms: _232  and  _234
REMARK   92  A    between atoms: _234  and  _235
REMARK   93  A    between atoms: _234  and  _237
REMARK   94  A    between atoms: _237  and  _238
REMARK   95  A    between atoms: _241  and  _243
REMARK   96  A    between atoms: _243  and  _244
REMARK   97  A    between atoms: _243  and  _246
REMARK   98  A    between atoms: _249  and  _251
REMARK   99  A    between atoms: _251  and  _252
REMARK  100  A    between atoms: _251  and  _254
REMARK  101  A    between atoms: _257  and  _259
REMARK  102  A    between atoms: _259  and  _260
REMARK  103  A    between atoms: _259  and  _262
REMARK  104  A    between atoms: _262  and  _263
REMARK  105  A    between atoms: _266  and  _268
REMARK  106  A    between atoms: _268  and  _269
REMARK  107  A    between atoms: _268  and  _271
REMARK  108  A    between atoms: _271  and  _272
REMARK  109  A    between atoms: _275  and  _277
REMARK  110  A    between atoms: _277  and  _278
REMARK  111  A    between atoms: _277  and  _280
REMARK  112  A    between atoms: _283  and  _285
REMARK  113  A    between atoms: _285  and  _286
REMARK  114  A    between atoms: _285  and  _288
REMARK  115  A    between atoms: _288  and  _289
REMARK  116  A    between atoms: _295  and  _297
REMARK  117  A    between atoms: _297  and  _298
REMARK  118  A    between atoms: _297  and  _300
REMARK  119  A    between atoms: _300  and  _301
REMARK  120  A    between atoms: _307  and  _309
REMARK  121  A    between atoms: _309  and  _310
REMARK  122  A    between atoms: _312  and  _314
REMARK  123  A    between atoms: _314  and  _315
REMARK  124  A    between atoms: _314  and  _317
REMARK  125  A    between atoms: _317  and  _318
REMARK  126  A    between atoms: _318  and  _319
REMARK  127  A    between atoms: _322  and  _324
REMARK  128  A    between atoms: _324  and  _325
REMARK  129  A    between atoms: _324  and  _327
REMARK  130  A    between atoms: _327  and  _328
REMARK  131  A    between atoms: _328  and  _329
REMARK  132  A    between atoms: _329  and  _330
REMARK  133  A    between atoms: _330  and  _331
REMARK  134  A    between atoms: _335  and  _337
REMARK  135  A    between atoms: _337  and  _338
REMARK  136  A    between atoms: _337  and  _340
REMARK  137  A    between atoms: _340  and  _341
REMARK  138  A    between atoms: _344  and  _346
REMARK  139  A    between atoms: _346  and  _347
REMARK  140  A    between atoms: _346  and  _349
REMARK  141  A    between atoms: _349  and  _350
REMARK  142  A    between atoms: _350  and  _351
REMARK  143  A    between atoms: _356  and  _358
REMARK  144  A    between atoms: _358  and  _359
REMARK  145  A    between atoms: _358  and  _361
REMARK  146  A    between atoms: _361  and  _362
REMARK  147  A    between atoms: _365  and  _367
REMARK  148  A    between atoms: _367  and  _368
REMARK  149  A    between atoms: _367  and  _370
REMARK  150  A    between atoms: _370  and  _371
REMARK  151  A    between atoms: _374  and  _376
REMARK  152  A    between atoms: _376  and  _377
REMARK  153  A    between atoms: _379  and  _381
REMARK  154  A    between atoms: _381  and  _382
REMARK  155  A    between atoms: _381  and  _384
REMARK  156  A    between atoms: _388  and  _389
REMARK  157  A    between atoms: _394  and  _396
REMARK  158  A    between atoms: _396  and  _397
REMARK  159  A    between atoms: _396  and  _399
REMARK  160  A    between atoms: _399  and  _400
REMARK  161  A    between atoms: _403  and  _405
REMARK  162  A    between atoms: _405  and  _406
REMARK  163  A    between atoms: _405  and  _408
REMARK  164  A    between atoms: _411  and  _413
REMARK  165  A    between atoms: _413  and  _414
REMARK  166  A    between atoms: _413  and  _416
REMARK  167  A    between atoms: _416  and  _417
REMARK  168  A    between atoms: _417  and  _418
REMARK  169  A    between atoms: _418  and  _419
REMARK  170  A    between atoms: _428  and  _430
REMARK  171  A    between atoms: _430  and  _431
REMARK  172  A    between atoms: _430  and  _433
REMARK  173  A    between atoms: _433  and  _434
REMARK  174  A    between atoms: _437  and  _439
REMARK  175  A    between atoms: _439  and  _440
REMARK  176  A    between atoms: _443  and  _445
REMARK  177  A    between atoms: _445  and  _446
REMARK  178  A    between atoms: _445  and  _448
REMARK  179  A    between atoms: _448  and  _449
REMARK  180  A    between atoms: _449  and  _450
REMARK  181  A    between atoms: _452  and  _454
REMARK  182  A    between atoms: _454  and  _455
REMARK  183  A    between atoms: _454  and  _457
REMARK  184  A    between atoms: _457  and  _458
REMARK  185  A    between atoms: _460  and  _462
REMARK  186  A    between atoms: _462  and  _463
REMARK  187  A    between atoms: _462  and  _465
REMARK  188  A    between atoms: _465  and  _466
REMARK  189  A    between atoms: _468  and  _470
REMARK  190  A    between atoms: _470  and  _471
REMARK  191  A    between atoms: _470  and  _473
REMARK  192  A    between atoms: _473  and  _474
REMARK  193  A    between atoms: _474  and  _475
REMARK  194  A    between atoms: _475  and  _476
REMARK  195  A    between atoms: _485  and  _487
REMARK  196  A    between atoms: _487  and  _488
REMARK  197  A    between atoms: _487  and  _490
REMARK  198  A    between atoms: _490  and  _491
REMARK  199  A    between atoms: _496  and  _498
REMARK  200  A    between atoms: _498  and  _499
REMARK  201  A    between atoms: _498  and  _501
REMARK  202  A    between atoms: _501  and  _502
REMARK  203  A    between atoms: _502  and  _503
REMARK  204  A    between atoms: _503  and  _504
REMARK  205  A    between atoms: _513  and  _515
REMARK  206  A    between atoms: _515  and  _516
REMARK  207  A    between atoms: _515  and  _518
REMARK  208  A    between atoms: _518  and  _519
REMARK  209  A    between atoms: _519  and  _520
REMARK  210  A    between atoms: _520  and  _521
REMARK  211  A    between atoms: _530  and  _532
REMARK  212  A    between atoms: _532  and  _533
REMARK  213  A    between atoms: _532  and  _535
REMARK  214  A    between atoms: _535  and  _536
REMARK  215  A    between atoms: _539  and  _541
REMARK  216  A    between atoms: _541  and  _542
REMARK  217  A    between atoms: _541  and  _544
REMARK  218  A    between atoms: _544  and  _545
REMARK  219  A    between atoms: _548  and  _550
REMARK  220  A    between atoms: _550  and  _551
REMARK  221  A    between atoms: _550  and  _553
REMARK  222  A    between atoms: _553  and  _554
REMARK                            x       y       z     vdW  Elec       q    Type
REMARK                         _______ _______ _______ _____ _____    ______ ____
ROOT
ATOM      1  CA  HIS A   9      15.137  17.850  -3.573  0.00  0.00    +0.155 C 
ENDROOT
BRANCH   1   2
ATOM      2  C   HIS A   9      13.873  17.325  -4.263  0.00  0.00    +0.241 C 
ATOM      3  O   HIS A   9      12.909  16.936  -3.617  0.00  0.00    -0.273 OA
ATOM      4  N   GLU A  10      13.887  17.302  -5.590  0.00  0.00    -0.297 N 
ATOM      5  H   GLU A  10      14.747  17.607  -6.090  0.00  0.00    +0.150 HD
BRANCH   4   6
ATOM      6  CA  GLU A  10      12.736  16.863  -6.369  0.00  0.00    +0.149 C 
BRANCH   6   7
ATOM      7  C   GLU A  10      12.215  15.477  -5.981  0.00  0.00    +0.241 C 
ATOM      8  N   GLY A  11      13.117  14.641  -5.480  0.00  0.00    -0.295 N 
ATOM      9  H   GLY A  11      14.106  14.953  -5.402  0.00  0.00    +0.150 HD
ATOM     10  O   GLU A  10      11.035  15.169  -6.190  0.00  0.00    -0.273 OA
BRANCH   8  11
ATOM     11  CA  GLY A  11      12.760  13.294  -5.035  0.00  0.00    +0.176 C 
BRANCH  11  12
ATOM     12  C   GLY A  11      11.793  13.327  -3.854  0.00  0.00    +0.243 C 
ATOM     13  N   HIS A  12      12.117  14.151  -2.862  0.00  0.00    -0.297 N 
ATOM     14  H   HIS A  12      13.057  14.596  -2.857  0.00  0.00    +0.150 HD
ATOM     15  O   GLY A  11      10.771  12.634  -3.845  0.00  0.00    -0.273 OA
BRANCH  13  16
ATOM     16  CA  HIS A  12      11.183  14.444  -1.781  0.00  0.00    +0.155 C 
BRANCH  16  17
ATOM     17  C   HIS A  12       9.868  15.027  -2.297  0.00  0.00    +0.241 C 
ATOM     18  O   HIS A  12       8.794  14.677  -1.792  0.00  0.00    -0.273 OA
ATOM     19  N   LEU A  13       9.929  15.936  -3.280  0.00  0.00    -0.297 N 
ATOM     20  H   LEU A  13      10.849  16.200  -3.686  0.00  0.00    +0.150 HD
BRANCH  19  21
ATOM     21  CA  LEU A  13       8.696  16.562  -3.787  0.00  0.00    +0.149 C 
BRANCH  21  22
ATOM     22  C   LEU A  13       7.769  15.552  -4.466  0.00  0.00    +0.241 C 
ATOM     23  O   LEU A  13       6.554  15.695  -4.406  0.00  0.00    -0.273 OA
ATOM     24  N   ALA A  14       8.365  14.527  -5.065  0.00  0.00    -0.297 N 
ATOM     25  H   ALA A  14       9.403  14.527  -5.132  0.00  0.00    +0.150 HD
BRANCH  24  26
ATOM     26  CA  ALA A  14       7.624  13.393  -5.637  0.00  0.00    +0.149 C 
ATOM     27  CB  ALA A  14       8.554  12.500  -6.397  0.00  0.00    +0.031 C 
BRANCH  26  28
ATOM     28  C   ALA A  14       6.889  12.608  -4.535  0.00  0.00    +0.241 C 
ATOM     29  N   LEU A  15       7.526  12.477  -3.365  0.00  0.00    -0.297 N 
ATOM     30  H   LEU A  15       8.499  12.831  -3.267  0.00  0.00    +0.150 HD
ATOM     31  O   ALA A  14       5.762  12.123  -4.751  0.00  0.00    -0.273 OA
BRANCH  29  32
ATOM     32  CA  LEU A  15       6.861  11.833  -2.207  0.00  0.00    +0.149 C 
BRANCH  32  33
ATOM     33  C   LEU A  15       5.654  12.682  -1.788  0.00  0.00    +0.241 C 
ATOM     34  O   LEU A  15       4.550  12.160  -1.584  0.00  0.00    -0.273 OA
ATOM     35  N   VAL A  16       5.887  13.984  -1.637  0.00  0.00    -0.298 N 
ATOM     36  H   VAL A  16       6.859  14.332  -1.763  0.00  0.00    +0.150 HD
BRANCH  35  37
ATOM     37  CA  VAL A  16       4.834  14.953  -1.300  0.00  0.00    +0.137 C 
BRANCH  37  38
ATOM     38  CB  VAL A  16       5.395  16.408  -1.312  0.00  0.00    +0.026 C 
ATOM     39  CG2 VAL A  16       6.336  16.666  -0.096  0.00  0.00    +0.002 C 
ATOM     40  CG1 VAL A  16       4.252  17.433  -1.348  0.00  0.00    +0.002 C 
ENDBRANCH  37  38
BRANCH  37  41
ATOM     41  C   VAL A  16       3.665  14.862  -2.287  0.00  0.00    +0.227 C 
ATOM     42  O   VAL A  16       2.489  14.802  -1.906  0.00  0.00    -0.286 OA
ENDBRANCH  37  41
ENDBRANCH  35  37
ENDBRANCH  32  33
BRANCH  32  43
ATOM     43  CB  LEU A  15       7.830  11.689  -1.025  0.00  0.00    +0.029 C 
BRANCH  43  44
ATOM     44  CG  LEU A  15       9.189  11.041  -1.204  0.00  0.00    +0.002 C 
ATOM     45  CD2 LEU A  15       9.908  10.856   0.179  0.00  0.00    +0.000 C 
ATOM     46  CD1 LEU A  15       9.047   9.717  -1.893  0.00  0.00    +0.000 C 
ENDBRANCH  43  44
ENDBRANCH  32  43
ENDBRANCH  29  32
ENDBRANCH  26  28
ENDBRANCH  24  26
ENDBRANCH  21  22
BRANCH  21  47
ATOM     47  CB  LEU A  13       8.997  17.770  -4.685  0.00  0.00    +0.029 C 
BRANCH  47  48
ATOM     48  CG  LEU A  13       9.850  18.866  -4.027  0.00  0.00    +0.002 C 
ATOM     49  CD2 LEU A  13       9.071  19.610  -2.956  0.00  0.00    +0.000 C 
ATOM     50  CD1 LEU A  13      10.343  19.862  -5.056  0.00  0.00    +0.000 C 
ENDBRANCH  47  48
ENDBRANCH  21  47
ENDBRANCH  19  21
ENDBRANCH  16  17
BRANCH  16  51
ATOM     51  CB  HIS A  12      11.820  15.413  -0.749  0.00  0.00    +0.076 C 
BRANCH  51  52
ATOM     52  CG  HIS A  12      13.067  14.890  -0.101  0.00  0.00    +0.082 A 
ATOM     53  CD2 HIS A  12      13.254  13.987   0.889  0.00  0.00    +0.115 A 
ATOM     54  NE2 HIS A  12      14.609  13.891   1.101  0.00  0.00    -0.221 NA
ATOM     55  CE1 HIS A  12      15.231  14.719   0.278  0.00  0.00    +0.199 A 
ATOM     56  ND1 HIS A  12      14.322  15.326  -0.458  0.00  0.00    -0.227 NA
ENDBRANCH  51  52
ENDBRANCH  16  51
ENDBRANCH  13  16
ENDBRANCH  11  12
ENDBRANCH   8  11
ENDBRANCH   6   7
BRANCH   6  57
ATOM     57  CB  GLU A  10      13.079  16.876  -7.864  0.00  0.00    +0.041 C 
BRANCH  57  58
ATOM     58  CG  GLU A  10      11.861  16.672  -8.785  0.00  0.00    +0.116 C 
BRANCH  58  59
ATOM     59  CD  GLU A  10      10.941  17.887  -8.837  0.00  0.00    +0.365 C 
ATOM     60  OE2 GLU A  10      11.316  18.968  -8.318  0.00  0.00    -0.246 OA
ATOM     61  OE1 GLU A  10       9.841  17.765  -9.415  0.00  0.00    -0.246 OA
ENDBRANCH  58  59
ENDBRANCH  57  58
ENDBRANCH   6  57
ENDBRANCH   4   6
ENDBRANCH   1   2
BRANCH   1  64
ATOM     62  C   LEU A   8      15.128  18.872  -1.378  0.00  0.00    +0.241 C 
ATOM     63  O   LEU A   8      15.562  19.959  -1.801  0.00  0.00    -0.273 OA
ATOM     64  N   HIS A   9      14.986  17.800  -2.133  0.00  0.00    -0.297 N 
ATOM     65  H   HIS A   9      14.759  16.891  -1.681  0.00  0.00    +0.150 HD
BRANCH  62  66
ATOM     66  CA  LEU A   8      14.811  18.667   0.096  0.00  0.00    +0.149 C 
BRANCH  66  68
ATOM     67  C   ALA A   7      17.004  18.737   1.153  0.00  0.00    +0.241 C 
ATOM     68  N   LEU A   8      15.805  19.279   0.983  0.00  0.00    -0.297 N 
ATOM     69  H   LEU A   8      15.565  20.155   1.489  0.00  0.00    +0.150 HD
ATOM     70  O   ALA A   7      17.436  17.838   0.426  0.00  0.00    -0.273 OA
BRANCH  67  71
ATOM     71  CA  ALA A   7      17.814  19.279   2.349  0.00  0.00    +0.149 C 
ATOM     72  CB  ALA A   7      19.171  18.548   2.515  0.00  0.00    +0.031 C 
BRANCH  71  74
ATOM     73  C   GLY A   6      16.468  17.964   3.944  0.00  0.00    +0.243 C 
ATOM     74  N   ALA A   7      16.991  19.141   3.562  0.00  0.00    -0.297 N 
ATOM     75  H   ALA A   7      16.808  19.984   4.143  0.00  0.00    +0.150 HD
ATOM     76  O   GLY A   6      16.736  16.896   3.382  0.00  0.00    -0.273 OA
BRANCH  73  77
ATOM     77  CA  GLY A   6      15.535  17.986   5.156  0.00  0.00    +0.176 C 
BRANCH  77  80
ATOM     78  C   MET A   5      16.413  16.105   6.478  0.00  0.00    +0.241 C 
ATOM     79  O   MET A   5      17.510  16.662   6.627  0.00  0.00    -0.273 OA
ATOM     80  N   GLY A   6      15.413  16.666   5.806  0.00  0.00    -0.295 N 
ATOM     81  H   GLY A   6      14.510  16.155   5.735  0.00  0.00    +0.150 HD
BRANCH  78  82
ATOM     82  CA  MET A   5      16.091  14.722   7.070  0.00  0.00    +0.149 C 
BRANCH  82  85
ATOM     83  C   THR A   4      13.772  14.001   6.715  0.00  0.00    +0.243 C 
ATOM     84  O   THR A   4      13.455  14.264   7.877  0.00  0.00    -0.273 OA
ATOM     85  N   MET A   5      15.018  14.108   6.261  0.00  0.00    -0.297 N 
ATOM     86  H   MET A   5      15.243  13.750   5.311  0.00  0.00    +0.150 HD
BRANCH  83  87
ATOM     87  CA  THR A   4      12.705  13.512   5.697  0.00  0.00    +0.176 C 
BRANCH  87  89
ATOM     88  C   PRO A   3      10.846  11.999   6.078  0.00  0.00    +0.241 C 
ATOM     89  N   THR A   4      11.511  13.095   6.412  0.00  0.00    -0.295 N 
ATOM     90  H   THR A   4      11.169  13.672   7.207  0.00  0.00    +0.150 HD
ATOM     91  O   PRO A   3      11.208  11.230   5.188  0.00  0.00    -0.273 OA
BRANCH  88  94
ATOM     92  C   VAL A   2       7.777  12.491   5.409  0.00  0.00    +0.244 C 
ATOM     93  N   PRO A   3       8.465  11.472   5.942  0.00  0.00    -0.272 N 
ATOM     94  CA  PRO A   3       9.588  11.739   6.848  0.00  0.00    +0.152 C 
ATOM     95  CB  PRO A   3       9.730  10.443   7.648  0.00  0.00    +0.031 C 
ATOM     96  CG  PRO A   3       8.636   9.487   7.145  0.00  0.00    +0.024 C 
ATOM     97  CD  PRO A   3       8.232  10.020   5.785  0.00  0.00    +0.094 C 
ATOM     98  O   VAL A   2       8.029  13.674   5.670  0.00  0.00    -0.273 OA
BRANCH  92  99
ATOM     99  CA  VAL A   2       6.604  12.133   4.464  0.00  0.00    +0.149 C 
BRANCH  99 101
ATOM    100  C   LEU A   1       4.586  11.212   5.497  0.00  0.00    +0.238 C 
ATOM    101  N   VAL A   2       5.385  12.256   5.250  0.00  0.00    -0.297 N 
ATOM    102  H   VAL A   2       5.126  13.188   5.633  0.00  0.00    +0.150 HD
ATOM    103  O   LEU A   1       4.734  10.125   4.966  0.00  0.00    -0.274 OA
BRANCH 100 104
ATOM    104  CA  LEU A   1       3.466  11.434   6.500  0.00  0.00    +0.145 C 
BRANCH 104 105
ATOM    105  N   LEU A   1       2.177  11.010   5.948  0.00  0.00    -0.238 NA
ATOM    106  H   LEU A   1       2.021  10.005   5.731  0.00  0.00    +0.142 HD
ENDBRANCH 104 105
BRANCH 104 107
ATOM    107  CB  LEU A   1       3.767  10.685   7.821  0.00  0.00    +0.026 C 
BRANCH 107 108
ATOM    108  CG  LEU A   1       5.145  10.979   8.464  0.00  0.00    +0.002 C 
ATOM    109  CD2 LEU A   1       5.529  10.034   9.605  0.00  0.00    +0.000 C 
ATOM    110  CD1 LEU A   1       5.248  12.401   8.927  0.00  0.00    +0.000 C 
ENDBRANCH 107 108
ENDBRANCH 104 107
ENDBRANCH 100 104
ENDBRANCH  99 101
BRANCH  99 111
ATOM    111  CB  VAL A   2       6.583  13.086   3.217  0.00  0.00    +0.027 C 
ATOM    112  CG2 VAL A   2       7.880  12.959   2.383  0.00  0.00    +0.002 C 
ATOM    113  CG1 VAL A   2       5.322  12.822   2.349  0.00  0.00    +0.002 C 
ENDBRANCH  99 111
ENDBRANCH  92  99
ENDBRANCH  88  94
ENDBRANCH  87  89
BRANCH  87 114
ATOM    114  CB  THR A   4      12.411  14.678   4.721  0.00  0.00    +0.137 C 
ATOM    115  CG2 THR A   4      11.000  14.564   3.997  0.00  0.00    +0.034 C 
BRANCH 114 116
ATOM    116  OG1 THR A   4      12.442  15.894   5.457  0.00  0.00    -0.382 OA
ATOM    117  HG1 THR A   4      11.755  15.865   6.169  0.00  0.00    +0.210 HD
ENDBRANCH 114 116
ENDBRANCH  87 114
ENDBRANCH  83  87
ENDBRANCH  82  85
BRANCH  82 118
ATOM    118  CB  MET A   5      17.300  13.778   7.209  0.00  0.00    +0.041 C 
BRANCH 118 119
ATOM    119  CG  MET A   5      16.975  12.480   7.961  0.00  0.00    +0.060 C 
BRANCH 119 120
ATOM    120  SD  MET A   5      18.298  11.779   9.006  0.00  0.00    -0.139 S 
ATOM    121  CE  MET A   5      19.536  11.559   7.723  0.00  0.00    +0.069 C 
ENDBRANCH 119 120
ENDBRANCH 118 119
ENDBRANCH  82 118
ENDBRANCH  78  82
ENDBRANCH  77  80
ENDBRANCH  73  77
ENDBRANCH  71  74
ENDBRANCH  67  71
ENDBRANCH  66  68
BRANCH  66 122
ATOM    122  CB  LEU A   8      13.409  19.171   0.404  0.00  0.00    +0.029 C 
BRANCH 122 123
ATOM    123  CG  LEU A   8      12.868  18.944   1.841  0.00  0.00    +0.002 C 
ATOM    124  CD2 LEU A   8      12.800  17.493   2.271  0.00  0.00    +0.000 C 
ATOM    125  CD1 LEU A   8      11.510  19.616   2.013  0.00  0.00    +0.000 C 
ENDBRANCH 122 123
ENDBRANCH  66 122
ENDBRANCH  62  66
ENDBRANCH   1  64
BRANCH   1 126
ATOM    126  CB  HIS A   9      16.389  17.081  -3.995  0.00  0.00    +0.076 C 
BRANCH 126 127
ATOM    127  CG  HIS A   9      16.474  15.700  -3.420  0.00  0.00    +0.082 A 
ATOM    128  CD2 HIS A   9      17.310  15.165  -2.502  0.00  0.00    +0.115 A 
ATOM    129  NE2 HIS A   9      16.937  13.852  -2.334  0.00  0.00    -0.221 NA
ATOM    130  CE1 HIS A   9      15.900  13.597  -3.111  0.00  0.00    +0.199 A 
ATOM    131  ND1 HIS A   9      15.605  14.696  -3.780  0.00  0.00    -0.227 NA
ENDBRANCH 126 127
ENDBRANCH   1 126
TORSDOF 53
REMARK  Name = ../refined-set-2016/3ivx/3ivx_pocket.pdb
REMARK  222 active torsions:
REMARK  status: ('A' for Active; 'I' for Inactive)
REMARK    1  A    between atoms: _1  and  _3
REMARK    2  A    between atoms: _3  and  _4
REMARK    3  A    between atoms: _3  and  _6
REMARK    4  A    between atoms: _6  and  _7
REMARK    5  A    between atoms: _10  and  _12
REMARK    6  A    between atoms: _12  and  _13
REMARK    7  A    between atoms: _12  and  _15
REMARK    8  A    between atoms: _19  and  _20
REMARK    9  A    between atoms: _25  and  _27
REMARK   10  A    between atoms: _27  and  _28
REMARK   11  A    between atoms: _27  and  _30
REMARK   12  A    between atoms: _30  and  _31
REMARK   13  A    between atoms: _34  and  _36
REMARK   14  A    between atoms: _36  and  _37
REMARK   15  A    between atoms: _36  and  _39
REMARK   16  A    between atoms: _39  and  _40
REMARK   17  A    between atoms: _40  and  _41
REMARK   18  A    between atoms: _43  and  _45
REMARK   19  A    between atoms: _45  and  _46
REMARK   20  A    between atoms: _48  and  _50
REMARK   21  A    between atoms: _50  and  _51
REMARK   22  A    between atoms: _54  and  _56
REMARK   23  A    between atoms: _56  and  _57
REMARK   24  A    between atoms: _56  and  _59
REMARK   25  A    between atoms: _59  and  _60
REMARK   26  A    between atoms: _63  and  _65
REMARK   27  A    between atoms: _65  and  _66
REMARK   28  A    between atoms: _65  and  _68
REMARK   29  A    between atoms: _68  and  _69
REMARK   30  A    between atoms: _74  and  _76
REMARK   31  A    between atoms: _76  and  _77
REMARK   32  A    between atoms: _76  and  _79
REMARK   33  A    between atoms: _79  and  _80
REMARK   34  A    between atoms: _80  and  _81
REMARK   35  A    between atoms: _84  and  _86
REMARK   36  A    between atoms: _86  and  _87
REMARK   37  A    between atoms: _89  and  _91
REMARK   38  A    between atoms: _91  and  _92
REMARK   39  A    between atoms: _91  and  _94
REMARK   40  A    between atoms: _94  and  _95
REMARK   41  A    between atoms: _100  and  _102
REMARK   42  A    between atoms: _102  and  _103
REMARK   43  A    between atoms: _102  and  _105
REMARK   44  A    between atoms: _105  and  _106
REMARK   45  A    between atoms: _109  and  _111
REMARK   46  A    between atoms: _111  and  _112
REMARK   47  A    between atoms: _115  and  _117
REMARK   48  A    between atoms: _117  and  _118
REMARK   49  A    between atoms: _117  and  _120
REMARK   50  A    between atoms: _120  and  _121
REMARK   51  A    between atoms: _124  and  _126
REMARK   52  A    between atoms: _126  and  _127
REMARK   53  A    between atoms: _126  and  _129
REMARK   54  A    between atoms: _132  and  _134
REMARK   55  A    between atoms: _134  and  _135
REMARK   56  A    between atoms: _138  and  _140
REMARK   57  A    between atoms: _140  and  _141
REMARK   58  A    between atoms: _140  and  _143
REMARK   59  A    between atoms: _143  and  _144
REMARK   60  A    between atoms: _146  and  _148
REMARK   61  A    between atoms: _148  and  _149
REMARK   62  A    between atoms: _148  and  _151
REMARK   63  A    between atoms: _151  and  _152
REMARK   64  A    between atoms: _155  and  _157
REMARK   65  A    between atoms: _157  and  _158
REMARK   66  A    between atoms: _157  and  _160
REMARK   67  A    between atoms: _160  and  _161
REMARK   68  A    between atoms: _167  and  _169
REMARK   69  A    between atoms: _169  and  _170
REMARK   70  A    between atoms: _169  and  _172
REMARK   71  A    between atoms: _175  and  _177
REMARK   72  A    between atoms: _177  and  _178
REMARK   73  A    between atoms: _177  and  _180
REMARK   74  A    between atoms: _180  and  _181
REMARK   75  A    between atoms: _186  and  _188
REMARK   76  A    between atoms: _188  and  _189
REMARK   77  A    between atoms: _188  and  _191
REMARK   78  A    between atoms: _191  and  _192
REMARK   79  A    between atoms: _192  and  _193
REMARK   80  A    between atoms: _198  and  _200
REMARK   81  A    between atoms: _200  and  _201
REMARK   82  A    between atoms: _200  and  _203
REMARK   83  A    between atoms: _203  and  _204
REMARK   84  A    between atoms: _209  and  _210
REMARK   85  A    between atoms: _213  and  _214
REMARK   86  A    between atoms: _219  and  _221
REMARK   87  A    between atoms: _221  and  _222
REMARK   88  A    between atoms: _224  and  _226
REMARK   89  A    between atoms: _226  and  _227
REMARK   90  A    between atoms: _226  and  _229
REMARK   91  A    between atoms: _232  and  _234
REMARK   92  A    between atoms: _234  and  _235
REMARK   93  A    between atoms: _234  and  _237
REMARK   94  A    between atoms: _237  and  _238
REMARK   95  A    between atoms: _241  and  _243
REMARK   96  A    between atoms: _243  and  _244
REMARK   97  A    between atoms: _243  and  _246
REMARK   98  A    between atoms: _249  and  _251
REMARK   99  A    between atoms: _251  and  _252
REMARK  100  A    between atoms: _251  and  _254
REMARK  101  A    between atoms: _257  and  _259
REMARK  102  A    between atoms: _259  and  _260
REMARK  103  A    between atoms: _259  and  _262
REMARK  104  A    between atoms: _262  and  _263
REMARK  105  A    between atoms: _266  and  _268
REMARK  106  A    between atoms: _268  and  _269
REMARK  107  A    between atoms: _268  and  _271
REMARK  108  A    between atoms: _271  and  _272
REMARK  109  A    between atoms: _275  and  _277
REMARK  110  A    between atoms: _277  and  _278
REMARK  111  A    between atoms: _277  and  _280
REMARK  112  A    between atoms: _283  and  _285
REMARK  113  A    between atoms: _285  and  _286
REMARK  114  A    between atoms: _285  and  _288
REMARK  115  A    between atoms: _288  and  _289
REMARK  116  A    between atoms: _295  and  _297
REMARK  117  A    between atoms: _297  and  _298
REMARK  118  A    between atoms: _297  and  _300
REMARK  119  A    between atoms: _300  and  _301
REMARK  120  A    between atoms: _307  and  _309
REMARK  121  A    between atoms: _309  and  _310
REMARK  122  A    between atoms: _312  and  _314
REMARK  123  A    between atoms: _314  and  _315
REMARK  124  A    between atoms: _314  and  _317
REMARK  125  A    between atoms: _317  and  _318
REMARK  126  A    between atoms: _318  and  _319
REMARK  127  A    between atoms: _322  and  _324
REMARK  128  A    between atoms: _324  and  _325
REMARK  129  A    between atoms: _324  and  _327
REMARK  130  A    between atoms: _327  and  _328
REMARK  131  A    between atoms: _328  and  _329
REMARK  132  A    between atoms: _329  and  _330
REMARK  133  A    between atoms: _330  and  _331
REMARK  134  A    between atoms: _335  and  _337
REMARK  135  A    between atoms: _337  and  _338
REMARK  136  A    between atoms: _337  and  _340
REMARK  137  A    between atoms: _340  and  _341
REMARK  138  A    between atoms: _344  and  _346
REMARK  139  A    between atoms: _346  and  _347
REMARK  140  A    between atoms: _346  and  _349
REMARK  141  A    between atoms: _349  and  _350
REMARK  142  A    between atoms: _350  and  _351
REMARK  143  A    between atoms: _356  and  _358
REMARK  144  A    between atoms: _358  and  _359
REMARK  145  A    between atoms: _358  and  _361
REMARK  146  A    between atoms: _361  and  _362
REMARK  147  A    between atoms: _365  and  _367
REMARK  148  A    between atoms: _367  and  _368
REMARK  149  A    between atoms: _367  and  _370
REMARK  150  A    between atoms: _370  and  _371
REMARK  151  A    between atoms: _374  and  _376
REMARK  152  A    between atoms: _376  and  _377
REMARK  153  A    between atoms: _379  and  _381
REMARK  154  A    between atoms: _381  and  _382
REMARK  155  A    between atoms: _381  and  _384
REMARK  156  A    between atoms: _388  and  _389
REMARK  157  A    between atoms: _394  and  _396
REMARK  158  A    between atoms: _396  and  _397
REMARK  159  A    between atoms: _396  and  _399
REMARK  160  A    between atoms: _399  and  _400
REMARK  161  A    between atoms: _403  and  _405
REMARK  162  A    between atoms: _405  and  _406
REMARK  163  A    between atoms: _405  and  _408
REMARK  164  A    between atoms: _411  and  _413
REMARK  165  A    between atoms: _413  and  _414
REMARK  166  A    between atoms: _413  and  _416
REMARK  167  A    between atoms: _416  and  _417
REMARK  168  A    between atoms: _417  and  _418
REMARK  169  A    between atoms: _418  and  _419
REMARK  170  A    between atoms: _428  and  _430
REMARK  171  A    between atoms: _430  and  _431
REMARK  172  A    between atoms: _430  and  _433
REMARK  173  A    between atoms: _433  and  _434
REMARK  174  A    between atoms: _437  and  _439
REMARK  175  A    between atoms: _439  and  _440
REMARK  176  A    between atoms: _443  and  _445
REMARK  177  A    between atoms: _445  and  _446
REMARK  178  A    between atoms: _445  and  _448
REMARK  179  A    between atoms: _448  and  _449
REMARK  180  A    between atoms: _449  and  _450
REMARK  181  A    between atoms: _452  and  _454
REMARK  182  A    between atoms: _454  and  _455
REMARK  183  A    between atoms: _454  and  _457
REMARK  184  A    between atoms: _457  and  _458
REMARK  185  A    between atoms: _460  and  _462
REMARK  186  A    between atoms: _462  and  _463
REMARK  187  A    between atoms: _462  and  _465
REMARK  188  A    between atoms: _465  and  _466
REMARK  189  A    between atoms: _468  and  _470
REMARK  190  A    between atoms: _470  and  _471
REMARK  191  A    between atoms: _470  and  _473
REMARK  192  A    between atoms: _473  and  _474
REMARK  193  A    between atoms: _474  and  _475
REMARK  194  A    between atoms: _475  and  _476
REMARK  195  A    between atoms: _485  and  _487
REMARK  196  A    between atoms: _487  and  _488
REMARK  197  A    between atoms: _487  and  _490
REMARK  198  A    between atoms: _490  and  _491
REMARK  199  A    between atoms: _496  and  _498
REMARK  200  A    between atoms: _498  and  _499
REMARK  201  A    between atoms: _498  and  _501
REMARK  202  A    between atoms: _501  and  _502
REMARK  203  A    between atoms: _502  and  _503
REMARK  204  A    between atoms: _503  and  _504
REMARK  205  A    between atoms: _513  and  _515
REMARK  206  A    between atoms: _515  and  _516
REMARK  207  A    between atoms: _515  and  _518
REMARK  208  A    between atoms: _518  and  _519
REMARK  209  A    between atoms: _519  and  _520
REMARK  210  A    between atoms: _520  and  _521
REMARK  211  A    between atoms: _530  and  _532
REMARK  212  A    between atoms: _532  and  _533
REMARK  213  A    between atoms: _532  and  _535
REMARK  214  A    between atoms: _535  and  _536
REMARK  215  A    between atoms: _539  and  _541
REMARK  216  A    between atoms: _541  and  _542
REMARK  217  A    between atoms: _541  and  _544
REMARK  218  A    between atoms: _544  and  _545
REMARK  219  A    between atoms: _548  and  _550
REMARK  220  A    between atoms: _550  and  _551
REMARK  221  A    between atoms: _550  and  _553
REMARK  222  A    between atoms: _553  and  _554
REMARK                            x       y       z     vdW  Elec       q    Type
REMARK                         _______ _______ _______ _____ _____    ______ ____
ROOT
ATOM      1  CA  ALA A   1       2.100  11.091  -4.112  0.00  0.00    +0.133 C 
ATOM      2  CB  ALA A   1       3.118   9.983  -3.895  0.00  0.00    +0.027 C 
ENDROOT
BRANCH   1   3
ATOM      3  N   ALA A   1       2.772  12.377  -4.256  0.00  0.00    -0.239 NA
ATOM      4  H   ALA A   1       3.803  12.417  -4.128  0.00  0.00    +0.142 HD
ENDBRANCH   1   3
BRANCH   1   5
ATOM      5  C   ALA A   1       1.124  11.166  -2.946  0.00  0.00    +0.224 C 
ATOM      6  O   ALA A   1       0.009  10.664  -3.026  0.00  0.00    -0.287 OA
ENDBRANCH   1   5
TORSDOF 2
REMARK  Name = ../refined-set-2016/3ivx/3ivx_pocket.pdb
REMARK  222 active torsions:
REMARK  status: ('A' for Active; 'I' for Inactive)
REMARK    1  A    between atoms: _1  and  _3
REMARK    2  A    between atoms: _3  and  _4
REMARK    3  A    between atoms: _3  and  _6
REMARK    4  A    between atoms: _6  and  _7
REMARK    5  A    between atoms: _10  and  _12
REMARK    6  A    between atoms: _12  and  _13
REMARK    7  A    between atoms: _12  and  _15
REMARK    8  A    between atoms: _19  and  _20
REMARK    9  A    between atoms: _25  and  _27
REMARK   10  A    between atoms: _27  and  _28
REMARK   11  A    between atoms: _27  and  _30
REMARK   12  A    between atoms: _30  and  _31
REMARK   13  A    between atoms: _34  and  _36
REMARK   14  A    between atoms: _36  and  _37
REMARK   15  A    between atoms: _36  and  _39
REMARK   16  A    between atoms: _39  and  _40
REMARK   17  A    between atoms: _40  and  _41
REMARK   18  A    between atoms: _43  and  _45
REMARK   19  A    between atoms: _45  and  _46
REMARK   20  A    between atoms: _48  and  _50
REMARK   21  A    between atoms: _50  and  _51
REMARK   22  A    between atoms: _54  and  _56
REMARK   23  A    between atoms: _56  and  _57
REMARK   24  A    between atoms: _56  and  _59
REMARK   25  A    between atoms: _59  and  _60
REMARK   26  A    between atoms: _63  and  _65
REMARK   27  A    between atoms: _65  and  _66
REMARK   28  A    between atoms: _65  and  _68
REMARK   29  A    between atoms: _68  and  _69
REMARK   30  A    between atoms: _74  and  _76
REMARK   31  A    between atoms: _76  and  _77
REMARK   32  A    between atoms: _76  and  _79
REMARK   33  A    between atoms: _79  and  _80
REMARK   34  A    between atoms: _80  and  _81
REMARK   35  A    between atoms: _84  and  _86
REMARK   36  A    between atoms: _86  and  _87
REMARK   37  A    between atoms: _89  and  _91
REMARK   38  A    between atoms: _91  and  _92
REMARK   39  A    between atoms: _91  and  _94
REMARK   40  A    between atoms: _94  and  _95
REMARK   41  A    between atoms: _100  and  _102
REMARK   42  A    between atoms: _102  and  _103
REMARK   43  A    between atoms: _102  and  _105
REMARK   44  A    between atoms: _105  and  _106
REMARK   45  A    between atoms: _109  and  _111
REMARK   46  A    between atoms: _111  and  _112
REMARK   47  A    between atoms: _115  and  _117
REMARK   48  A    between atoms: _117  and  _118
REMARK   49  A    between atoms: _117  and  _120
REMARK   50  A    between atoms: _120  and  _121
REMARK   51  A    between atoms: _124  and  _126
REMARK   52  A    between atoms: _126  and  _127
REMARK   53  A    between atoms: _126  and  _129
REMARK   54  A    between atoms: _132  and  _134
REMARK   55  A    between atoms: _134  and  _135
REMARK   56  A    between atoms: _138  and  _140
REMARK   57  A    between atoms: _140  and  _141
REMARK   58  A    between atoms: _140  and  _143
REMARK   59  A    between atoms: _143  and  _144
REMARK   60  A    between atoms: _146  and  _148
REMARK   61  A    between atoms: _148  and  _149
REMARK   62  A    between atoms: _148  and  _151
REMARK   63  A    between atoms: _151  and  _152
REMARK   64  A    between atoms: _155  and  _157
REMARK   65  A    between atoms: _157  and  _158
REMARK   66  A    between atoms: _157  and  _160
REMARK   67  A    between atoms: _160  and  _161
REMARK   68  A    between atoms: _167  and  _169
REMARK   69  A    between atoms: _169  and  _170
REMARK   70  A    between atoms: _169  and  _172
REMARK   71  A    between atoms: _175  and  _177
REMARK   72  A    between atoms: _177  and  _178
REMARK   73  A    between atoms: _177  and  _180
REMARK   74  A    between atoms: _180  and  _181
REMARK   75  A    between atoms: _186  and  _188
REMARK   76  A    between atoms: _188  and  _189
REMARK   77  A    between atoms: _188  and  _191
REMARK   78  A    between atoms: _191  and  _192
REMARK   79  A    between atoms: _192  and  _193
REMARK   80  A    between atoms: _198  and  _200
REMARK   81  A    between atoms: _200  and  _201
REMARK   82  A    between atoms: _200  and  _203
REMARK   83  A    between atoms: _203  and  _204
REMARK   84  A    between atoms: _209  and  _210
REMARK   85  A    between atoms: _213  and  _214
REMARK   86  A    between atoms: _219  and  _221
REMARK   87  A    between atoms: _221  and  _222
REMARK   88  A    between atoms: _224  and  _226
REMARK   89  A    between atoms: _226  and  _227
REMARK   90  A    between atoms: _226  and  _229
REMARK   91  A    between atoms: _232  and  _234
REMARK   92  A    between atoms: _234  and  _235
REMARK   93  A    between atoms: _234  and  _237
REMARK   94  A    between atoms: _237  and  _238
REMARK   95  A    between atoms: _241  and  _243
REMARK   96  A    between atoms: _243  and  _244
REMARK   97  A    between atoms: _243  and  _246
REMARK   98  A    between atoms: _249  and  _251
REMARK   99  A    between atoms: _251  and  _252
REMARK  100  A    between atoms: _251  and  _254
REMARK  101  A    between atoms: _257  and  _259
REMARK  102  A    between atoms: _259  and  _260
REMARK  103  A    between atoms: _259  and  _262
REMARK  104  A    between atoms: _262  and  _263
REMARK  105  A    between atoms: _266  and  _268
REMARK  106  A    between atoms: _268  and  _269
REMARK  107  A    between atoms: _268  and  _271
REMARK  108  A    between atoms: _271  and  _272
REMARK  109  A    between atoms: _275  and  _277
REMARK  110  A    between atoms: _277  and  _278
REMARK  111  A    between atoms: _277  and  _280
REMARK  112  A    between atoms: _283  and  _285
REMARK  113  A    between atoms: _285  and  _286
REMARK  114  A    between atoms: _285  and  _288
REMARK  115  A    between atoms: _288  and  _289
REMARK  116  A    between atoms: _295  and  _297
REMARK  117  A    between atoms: _297  and  _298
REMARK  118  A    between atoms: _297  and  _300
REMARK  119  A    between atoms: _300  and  _301
REMARK  120  A    between atoms: _307  and  _309
REMARK  121  A    between atoms: _309  and  _310
REMARK  122  A    between atoms: _312  and  _314
REMARK  123  A    between atoms: _314  and  _315
REMARK  124  A    between atoms: _314  and  _317
REMARK  125  A    between atoms: _317  and  _318
REMARK  126  A    between atoms: _318  and  _319
REMARK  127  A    between atoms: _322  and  _324
REMARK  128  A    between atoms: _324  and  _325
REMARK  129  A    between atoms: _324  and  _327
REMARK  130  A    between atoms: _327  and  _328
REMARK  131  A    between atoms: _328  and  _329
REMARK  132  A    between atoms: _329  and  _330
REMARK  133  A    between atoms: _330  and  _331
REMARK  134  A    between atoms: _335  and  _337
REMARK  135  A    between atoms: _337  and  _338
REMARK  136  A    between atoms: _337  and  _340
REMARK  137  A    between atoms: _340  and  _341
REMARK  138  A    between atoms: _344  and  _346
REMARK  139  A    between atoms: _346  and  _347
REMARK  140  A    between atoms: _346  and  _349
REMARK  141  A    between atoms: _349  and  _350
REMARK  142  A    between atoms: _350  and  _351
REMARK  143  A    between atoms: _356  and  _358
REMARK  144  A    between atoms: _358  and  _359
REMARK  145  A    between atoms: _358  and  _361
REMARK  146  A    between atoms: _361  and  _362
REMARK  147  A    between atoms: _365  and  _367
REMARK  148  A    between atoms: _367  and  _368
REMARK  149  A    between atoms: _367  and  _370
REMARK  150  A    between atoms: _370  and  _371
REMARK  151  A    between atoms: _374  and  _376
REMARK  152  A    between atoms: _376  and  _377
REMARK  153  A    between atoms: _379  and  _381
REMARK  154  A    between atoms: _381  and  _382
REMARK  155  A    between atoms: _381  and  _384
REMARK  156  A    between atoms: _388  and  _389
REMARK  157  A    between atoms: _394  and  _396
REMARK  158  A    between atoms: _396  and  _397
REMARK  159  A    between atoms: _396  and  _399
REMARK  160  A    between atoms: _399  and  _400
REMARK  161  A    between atoms: _403  and  _405
REMARK  162  A    between atoms: _405  and  _406
REMARK  163  A    between atoms: _405  and  _408
REMARK  164  A    between atoms: _411  and  _413
REMARK  165  A    between atoms: _413  and  _414
REMARK  166  A    between atoms: _413  and  _416
REMARK  167  A    between atoms: _416  and  _417
REMARK  168  A    between atoms: _417  and  _418
REMARK  169  A    between atoms: _418  and  _419
REMARK  170  A    between atoms: _428  and  _430
REMARK  171  A    between atoms: _430  and  _431
REMARK  172  A    between atoms: _430  and  _433
REMARK  173  A    between atoms: _433  and  _434
REMARK  174  A    between atoms: _437  and  _439
REMARK  175  A    between atoms: _439  and  _440
REMARK  176  A    between atoms: _443  and  _445
REMARK  177  A    between atoms: _445  and  _446
REMARK  178  A    between atoms: _445  and  _448
REMARK  179  A    between atoms: _448  and  _449
REMARK  180  A    between atoms: _449  and  _450
REMARK  181  A    between atoms: _452  and  _454
REMARK  182  A    between atoms: _454  and  _455
REMARK  183  A    between atoms: _454  and  _457
REMARK  184  A    between atoms: _457  and  _458
REMARK  185  A    between atoms: _460  and  _462
REMARK  186  A    between atoms: _462  and  _463
REMARK  187  A    between atoms: _462  and  _465
REMARK  188  A    between atoms: _465  and  _466
REMARK  189  A    between atoms: _468  and  _470
REMARK  190  A    between atoms: _470  and  _471
REMARK  191  A    between atoms: _470  and  _473
REMARK  192  A    between atoms: _473  and  _474
REMARK  193  A    between atoms: _474  and  _475
REMARK  194  A    between atoms: _475  and  _476
REMARK  195  A    between atoms: _485  and  _487
REMARK  196  A    between atoms: _487  and  _488
REMARK  197  A    between atoms: _487  and  _490
REMARK  198  A    between atoms: _490  and  _491
REMARK  199  A    between atoms: _496  and  _498
REMARK  200  A    between atoms: _498  and  _499
REMARK  201  A    between atoms: _498  and  _501
REMARK  202  A    between atoms: _501  and  _502
REMARK  203  A    between atoms: _502  and  _503
REMARK  204  A    between atoms: _503  and  _504
REMARK  205  A    between atoms: _513  and  _515
REMARK  206  A    between atoms: _515  and  _516
REMARK  207  A    between atoms: _515  and  _518
REMARK  208  A    between atoms: _518  and  _519
REMARK  209  A    between atoms: _519  and  _520
REMARK  210  A    between atoms: _520  and  _521
REMARK  211  A    between atoms: _530  and  _532
REMARK  212  A    between atoms: _532  and  _533
REMARK  213  A    between atoms: _532  and  _535
REMARK  214  A    between atoms: _535  and  _536
REMARK  215  A    between atoms: _539  and  _541
REMARK  216  A    between atoms: _541  and  _542
REMARK  217  A    between atoms: _541  and  _544
REMARK  218  A    between atoms: _544  and  _545
REMARK  219  A    between atoms: _548  and  _550
REMARK  220  A    between atoms: _550  and  _551
REMARK  221  A    between atoms: _550  and  _553
REMARK  222  A    between atoms: _553  and  _554
REMARK                            x       y       z     vdW  Elec       q    Type
REMARK                         _______ _______ _______ _____ _____    ______ ____
ROOT
ATOM      1  CA  PHE A   3      14.594  16.022  11.536  0.00  0.00    +0.153 C 
ENDROOT
BRANCH   1   4
ATOM      2  C   ILE A   2      12.974  17.276  10.241  0.00  0.00    +0.241 C 
ATOM      3  O   ILE A   2      12.803  18.089  11.148  0.00  0.00    -0.273 OA
ATOM      4  N   PHE A   3      13.835  16.277  10.320  0.00  0.00    -0.297 N 
ATOM      5  H   PHE A   3      13.974  15.659   9.495  0.00  0.00    +0.150 HD
BRANCH   2   6
ATOM      6  CA  ILE A   2      12.203  17.410   8.923  0.00  0.00    +0.148 C 
BRANCH   6   8
ATOM      7  C   SER A   1      10.147  16.164   8.508  0.00  0.00    +0.241 C 
ATOM      8  N   ILE A   2      10.792  17.087   9.193  0.00  0.00    -0.297 N 
ATOM      9  H   ILE A   2      10.290  17.601   9.945  0.00  0.00    +0.150 HD
ATOM     10  O   SER A   1      10.597  15.619   7.490  0.00  0.00    -0.274 OA
BRANCH   7  11
ATOM     11  CA  SER A   1       8.739  15.864   9.004  0.00  0.00    +0.174 C 
BRANCH  11  12
ATOM     12  N   SER A   1       7.838  15.695   7.851  0.00  0.00    -0.236 NA
ATOM     13  H   SER A   1       7.752  14.768   7.388  0.00  0.00    +0.142 HD
ENDBRANCH  11  12
BRANCH  11  14
ATOM     14  CB  SER A   1       8.715  14.673   9.975  0.00  0.00    +0.163 C 
BRANCH  14  15
ATOM     15  OG  SER A   1       9.288  13.510   9.429  0.00  0.00    -0.380 OA
ATOM     16  H   SER A   1      10.233  13.688   9.193  0.00  0.00    +0.211 HD
ENDBRANCH  14  15
ENDBRANCH  11  14
ENDBRANCH   7  11
ENDBRANCH   6   8
BRANCH   6  17
ATOM     17  CB  ILE A   2      12.394  18.826   8.335  0.00  0.00    +0.027 C 
ATOM     18  CG2 ILE A   2      13.928  19.120   8.170  0.00  0.00    +0.002 C 
BRANCH  17  19
ATOM     19  CG1 ILE A   2      11.673  18.936   6.986  0.00  0.00    +0.002 C 
ATOM     20  CD1 ILE A   2      11.598  20.361   6.442  0.00  0.00    +0.000 C 
ENDBRANCH  17  19
ENDBRANCH   6  17
ENDBRANCH   2   6
ENDBRANCH   1   4
BRANCH   1  21
ATOM     21  C   PHE A   3      15.855  15.281  11.173  0.00  0.00    +0.241 C 
ATOM     22  N   VAL A   4      16.993  15.879  11.477  0.00  0.00    -0.297 N 
ATOM     23  H   VAL A   4      16.982  16.811  11.938  0.00  0.00    +0.150 HD
ATOM     24  O   PHE A   3      15.817  14.181  10.618  0.00  0.00    -0.273 OA
BRANCH  22  25
ATOM     25  CA  VAL A   4      18.266  15.235  11.167  0.00  0.00    +0.149 C 
BRANCH  25  26
ATOM     26  C   VAL A   4      18.560  14.389  12.403  0.00  0.00    +0.241 C 
ATOM     27  O   VAL A   4      18.889  14.916  13.473  0.00  0.00    -0.273 OA
ATOM     28  N   ASN A   5      18.399  13.081  12.264  0.00  0.00    -0.298 N 
ATOM     29  H   ASN A   5      18.338  12.665  11.313  0.00  0.00    +0.150 HD
BRANCH  28  30
ATOM     30  CA  ASN A   5      18.306  12.218  13.443  0.00  0.00    +0.146 C 
BRANCH  30  31
ATOM     31  C   ASN A   5      19.689  11.796  13.901  0.00  0.00    +0.227 C 
ATOM     32  O   ASN A   5      20.317  10.969  13.239  0.00  0.00    -0.286 OA
ENDBRANCH  30  31
BRANCH  30  33
ATOM     33  CB  ASN A   5      17.499  10.967  13.072  0.00  0.00    +0.112 C 
BRANCH  33  34
ATOM     34  CG  ASN A   5      17.554   9.879  14.142  0.00  0.00    +0.222 C 
ATOM     35  OD1 ASN A   5      17.509  10.160  15.338  0.00  0.00    -0.275 OA
ATOM     36  ND2 ASN A   5      17.684   8.628  13.697  0.00  0.00    -0.329 N 
ATOM     37 HD21 ASN A   5      17.752   7.840  14.373  0.00  0.00    +0.145 HD
ATOM     38 HD22 ASN A   5      17.717   8.441  12.675  0.00  0.00    +0.145 HD
ENDBRANCH  33  34
ENDBRANCH  30  33
ENDBRANCH  28  30
ENDBRANCH  25  26
BRANCH  25  39
ATOM     39  CB  VAL A   4      19.400  16.249  10.883  0.00  0.00    +0.027 C 
ATOM     40  CG2 VAL A   4      20.715  15.487  10.747  0.00  0.00    +0.002 C 
ATOM     41  CG1 VAL A   4      19.117  17.072   9.612  0.00  0.00    +0.002 C 
ENDBRANCH  25  39
ENDBRANCH  22  25
ENDBRANCH   1  21
BRANCH   1  42
ATOM     42  CB  PHE A   3      13.753  15.189  12.542  0.00  0.00    +0.055 C 
BRANCH  42  43
ATOM     43  CG  PHE A   3      14.476  14.892  13.842  0.00  0.00    -0.020 A 
ATOM     44  CD2 PHE A   3      14.854  15.939  14.681  0.00  0.00    -0.004 A 
ATOM     45  CE2 PHE A   3      15.521  15.681  15.909  0.00  0.00    -0.000 A 
ATOM     46  CZ  PHE A   3      15.780  14.365  16.279  0.00  0.00    -0.000 A 
ATOM     47  CE1 PHE A   3      15.358  13.309  15.441  0.00  0.00    -0.000 A 
ATOM     48  CD1 PHE A   3      14.716  13.585  14.240  0.00  0.00    -0.004 A 
ENDBRANCH  42  43
ENDBRANCH   1  42
TORSDOF 19
REMARK  Name = ../refined-set-2016/3ivx/3ivx_pocket.pdb
REMARK  222 active torsions:
REMARK  status: ('A' for Active; 'I' for Inactive)
REMARK    1  A    between atoms: _1  and  _3
REMARK    2  A    between atoms: _3  and  _4
REMARK    3  A    between atoms: _3  and  _6
REMARK    4  A    between atoms: _6  and  _7
REMARK    5  A    between atoms: _10  and  _12
REMARK    6  A    between atoms: _12  and  _13
REMARK    7  A    between atoms: _12  and  _15
REMARK    8  A    between atoms: _19  and  _20
REMARK    9  A    between atoms: _25  and  _27
REMARK   10  A    between atoms: _27  and  _28
REMARK   11  A    between atoms: _27  and  _30
REMARK   12  A    between atoms: _30  and  _31
REMARK   13  A    between atoms: _34  and  _36
REMARK   14  A    between atoms: _36  and  _37
REMARK   15  A    between atoms: _36  and  _39
REMARK   16  A    between atoms: _39  and  _40
REMARK   17  A    between atoms: _40  and  _41
REMARK   18  A    between atoms: _43  and  _45
REMARK   19  A    between atoms: _45  and  _46
REMARK   20  A    between atoms: _48  and  _50
REMARK   21  A    between atoms: _50  and  _51
REMARK   22  A    between atoms: _54  and  _56
REMARK   23  A    between atoms: _56  and  _57
REMARK   24  A    between atoms: _56  and  _59
REMARK   25  A    between atoms: _59  and  _60
REMARK   26  A    between atoms: _63  and  _65
REMARK   27  A    between atoms: _65  and  _66
REMARK   28  A    between atoms: _65  and  _68
REMARK   29  A    between atoms: _68  and  _69
REMARK   30  A    between atoms: _74  and  _76
REMARK   31  A    between atoms: _76  and  _77
REMARK   32  A    between atoms: _76  and  _79
REMARK   33  A    between atoms: _79  and  _80
REMARK   34  A    between atoms: _80  and  _81
REMARK   35  A    between atoms: _84  and  _86
REMARK   36  A    between atoms: _86  and  _87
REMARK   37  A    between atoms: _89  and  _91
REMARK   38  A    between atoms: _91  and  _92
REMARK   39  A    between atoms: _91  and  _94
REMARK   40  A    between atoms: _94  and  _95
REMARK   41  A    between atoms: _100  and  _102
REMARK   42  A    between atoms: _102  and  _103
REMARK   43  A    between atoms: _102  and  _105
REMARK   44  A    between atoms: _105  and  _106
REMARK   45  A    between atoms: _109  and  _111
REMARK   46  A    between atoms: _111  and  _112
REMARK   47  A    between atoms: _115  and  _117
REMARK   48  A    between atoms: _117  and  _118
REMARK   49  A    between atoms: _117  and  _120
REMARK   50  A    between atoms: _120  and  _121
REMARK   51  A    between atoms: _124  and  _126
REMARK   52  A    between atoms: _126  and  _127
REMARK   53  A    between atoms: _126  and  _129
REMARK   54  A    between atoms: _132  and  _134
REMARK   55  A    between atoms: _134  and  _135
REMARK   56  A    between atoms: _138  and  _140
REMARK   57  A    between atoms: _140  and  _141
REMARK   58  A    between atoms: _140  and  _143
REMARK   59  A    between atoms: _143  and  _144
REMARK   60  A    between atoms: _146  and  _148
REMARK   61  A    between atoms: _148  and  _149
REMARK   62  A    between atoms: _148  and  _151
REMARK   63  A    between atoms: _151  and  _152
REMARK   64  A    between atoms: _155  and  _157
REMARK   65  A    between atoms: _157  and  _158
REMARK   66  A    between atoms: _157  and  _160
REMARK   67  A    between atoms: _160  and  _161
REMARK   68  A    between atoms: _167  and  _169
REMARK   69  A    between atoms: _169  and  _170
REMARK   70  A    between atoms: _169  and  _172
REMARK   71  A    between atoms: _175  and  _177
REMARK   72  A    between atoms: _177  and  _178
REMARK   73  A    between atoms: _177  and  _180
REMARK   74  A    between atoms: _180  and  _181
REMARK   75  A    between atoms: _186  and  _188
REMARK   76  A    between atoms: _188  and  _189
REMARK   77  A    between atoms: _188  and  _191
REMARK   78  A    between atoms: _191  and  _192
REMARK   79  A    between atoms: _192  and  _193
REMARK   80  A    between atoms: _198  and  _200
REMARK   81  A    between atoms: _200  and  _201
REMARK   82  A    between atoms: _200  and  _203
REMARK   83  A    between atoms: _203  and  _204
REMARK   84  A    between atoms: _209  and  _210
REMARK   85  A    between atoms: _213  and  _214
REMARK   86  A    between atoms: _219  and  _221
REMARK   87  A    between atoms: _221  and  _222
REMARK   88  A    between atoms: _224  and  _226
REMARK   89  A    between atoms: _226  and  _227
REMARK   90  A    between atoms: _226  and  _229
REMARK   91  A    between atoms: _232  and  _234
REMARK   92  A    between atoms: _234  and  _235
REMARK   93  A    between atoms: _234  and  _237
REMARK   94  A    between atoms: _237  and  _238
REMARK   95  A    between atoms: _241  and  _243
REMARK   96  A    between atoms: _243  and  _244
REMARK   97  A    between atoms: _243  and  _246
REMARK   98  A    between atoms: _249  and  _251
REMARK   99  A    between atoms: _251  and  _252
REMARK  100  A    between atoms: _251  and  _254
REMARK  101  A    between atoms: _257  and  _259
REMARK  102  A    between atoms: _259  and  _260
REMARK  103  A    between atoms: _259  and  _262
REMARK  104  A    between atoms: _262  and  _263
REMARK  105  A    between atoms: _266  and  _268
REMARK  106  A    between atoms: _268  and  _269
REMARK  107  A    between atoms: _268  and  _271
REMARK  108  A    between atoms: _271  and  _272
REMARK  109  A    between atoms: _275  and  _277
REMARK  110  A    between atoms: _277  and  _278
REMARK  111  A    between atoms: _277  and  _280
REMARK  112  A    between atoms: _283  and  _285
REMARK  113  A    between atoms: _285  and  _286
REMARK  114  A    between atoms: _285  and  _288
REMARK  115  A    between atoms: _288  and  _289
REMARK  116  A    between atoms: _295  and  _297
REMARK  117  A    between atoms: _297  and  _298
REMARK  118  A    between atoms: _297  and  _300
REMARK  119  A    between atoms: _300  and  _301
REMARK  120  A    between atoms: _307  and  _309
REMARK  121  A    between atoms: _309  and  _310
REMARK  122  A    between atoms: _312  and  _314
REMARK  123  A    between atoms: _314  and  _315
REMARK  124  A    between atoms: _314  and  _317
REMARK  125  A    between atoms: _317  and  _318
REMARK  126  A    between atoms: _318  and  _319
REMARK  127  A    between atoms: _322  and  _324
REMARK  128  A    between atoms: _324  and  _325
REMARK  129  A    between atoms: _324  and  _327
REMARK  130  A    between atoms: _327  and  _328
REMARK  131  A    between atoms: _328  and  _329
REMARK  132  A    between atoms: _329  and  _330
REMARK  133  A    between atoms: _330  and  _331
REMARK  134  A    between atoms: _335  and  _337
REMARK  135  A    between atoms: _337  and  _338
REMARK  136  A    between atoms: _337  and  _340
REMARK  137  A    between atoms: _340  and  _341
REMARK  138  A    between atoms: _344  and  _346
REMARK  139  A    between atoms: _346  and  _347
REMARK  140  A    between atoms: _346  and  _349
REMARK  141  A    between atoms: _349  and  _350
REMARK  142  A    between atoms: _350  and  _351
REMARK  143  A    between atoms: _356  and  _358
REMARK  144  A    between atoms: _358  and  _359
REMARK  145  A    between atoms: _358  and  _361
REMARK  146  A    between atoms: _361  and  _362
REMARK  147  A    between atoms: _365  and  _367
REMARK  148  A    between atoms: _367  and  _368
REMARK  149  A    between atoms: _367  and  _370
REMARK  150  A    between atoms: _370  and  _371
REMARK  151  A    between atoms: _374  and  _376
REMARK  152  A    between atoms: _376  and  _377
REMARK  153  A    between atoms: _379  and  _381
REMARK  154  A    between atoms: _381  and  _382
REMARK  155  A    between atoms: _381  and  _384
REMARK  156  A    between atoms: _388  and  _389
REMARK  157  A    between atoms: _394  and  _396
REMARK  158  A    between atoms: _396  and  _397
REMARK  159  A    between atoms: _396  and  _399
REMARK  160  A    between atoms: _399  and  _400
REMARK  161  A    between atoms: _403  and  _405
REMARK  162  A    between atoms: _405  and  _406
REMARK  163  A    between atoms: _405  and  _408
REMARK  164  A    between atoms: _411  and  _413
REMARK  165  A    between atoms: _413  and  _414
REMARK  166  A    between atoms: _413  and  _416
REMARK  167  A    between atoms: _416  and  _417
REMARK  168  A    between atoms: _417  and  _418
REMARK  169  A    between atoms: _418  and  _419
REMARK  170  A    between atoms: _428  and  _430
REMARK  171  A    between atoms: _430  and  _431
REMARK  172  A    between atoms: _430  and  _433
REMARK  173  A    between atoms: _433  and  _434
REMARK  174  A    between atoms: _437  and  _439
REMARK  175  A    between atoms: _439  and  _440
REMARK  176  A    between atoms: _443  and  _445
REMARK  177  A    between atoms: _445  and  _446
REMARK  178  A    between atoms: _445  and  _448
REMARK  179  A    between atoms: _448  and  _449
REMARK  180  A    between atoms: _449  and  _450
REMARK  181  A    between atoms: _452  and  _454
REMARK  182  A    between atoms: _454  and  _455
REMARK  183  A    between atoms: _454  and  _457
REMARK  184  A    between atoms: _457  and  _458
REMARK  185  A    between atoms: _460  and  _462
REMARK  186  A    between atoms: _462  and  _463
REMARK  187  A    between atoms: _462  and  _465
REMARK  188  A    between atoms: _465  and  _466
REMARK  189  A    between atoms: _468  and  _470
REMARK  190  A    between atoms: _470  and  _471
REMARK  191  A    between atoms: _470  and  _473
REMARK  192  A    between atoms: _473  and  _474
REMARK  193  A    between atoms: _474  and  _475
REMARK  194  A    between atoms: _475  and  _476
REMARK  195  A    between atoms: _485  and  _487
REMARK  196  A    between atoms: _487  and  _488
REMARK  197  A    between atoms: _487  and  _490
REMARK  198  A    between atoms: _490  and  _491
REMARK  199  A    between atoms: _496  and  _498
REMARK  200  A    between atoms: _498  and  _499
REMARK  201  A    between atoms: _498  and  _501
REMARK  202  A    between atoms: _501  and  _502
REMARK  203  A    between atoms: _502  and  _503
REMARK  204  A    between atoms: _503  and  _504
REMARK  205  A    between atoms: _513  and  _515
REMARK  206  A    between atoms: _515  and  _516
REMARK  207  A    between atoms: _515  and  _518
REMARK  208  A    between atoms: _518  and  _519
REMARK  209  A    between atoms: _519  and  _520
REMARK  210  A    between atoms: _520  and  _521
REMARK  211  A    between atoms: _530  and  _532
REMARK  212  A    between atoms: _532  and  _533
REMARK  213  A    between atoms: _532  and  _535
REMARK  214  A    between atoms: _535  and  _536
REMARK  215  A    between atoms: _539  and  _541
REMARK  216  A    between atoms: _541  and  _542
REMARK  217  A    between atoms: _541  and  _544
REMARK  218  A    between atoms: _544  and  _545
REMARK  219  A    between atoms: _548  and  _550
REMARK  220  A    between atoms: _550  and  _551
REMARK  221  A    between atoms: _550  and  _553
REMARK  222  A    between atoms: _553  and  _554
REMARK                            x       y       z     vdW  Elec       q    Type
REMARK                         _______ _______ _______ _____ _____    ______ ____
ROOT
ATOM      1  CB  GLN A   1      20.431   7.078  11.669  0.00  0.00    +0.035 C 
ENDROOT
BRANCH   1   2
ATOM      2  CA  GLN A   1      21.527   7.066  12.742  0.00  0.00    +0.134 C 
BRANCH   2   3
ATOM      3  N   GLN A   1      21.168   7.884  13.904  0.00  0.00    -0.239 NA
ATOM      4  H   GLN A   1      20.808   8.849  13.761  0.00  0.00    +0.142 HD
ENDBRANCH   2   3
BRANCH   2   5
ATOM      5  C   GLN A   1      22.896   7.434  12.138  0.00  0.00    +0.224 C 
ATOM      6  O   GLN A   1      23.266   6.914  11.085  0.00  0.00    -0.287 OA
ENDBRANCH   2   5
ENDBRANCH   1   2
BRANCH   1   7
ATOM      7  CG  GLN A   1      20.226   8.412  10.950  0.00  0.00    +0.087 C 
BRANCH   7   8
ATOM      8  CD  GLN A   1      19.009   8.401  10.050  0.00  0.00    +0.219 C 
ATOM      9  NE2 GLN A   1      17.818   8.414  10.658  0.00  0.00    -0.329 N 
ATOM     10 HE21 GLN A   1      17.764   8.424  11.697  0.00  0.00    +0.145 HD
ATOM     11 HE22 GLN A   1      16.945   8.414  10.092  0.00  0.00    +0.145 HD
ATOM     12  OE1 GLN A   1      19.134   8.389   8.811  0.00  0.00    -0.275 OA
ENDBRANCH   7   8
ENDBRANCH   1   7
TORSDOF 5
REMARK  Name = ../refined-set-2016/3ivx/3ivx_pocket.pdb
REMARK  222 active torsions:
REMARK  status: ('A' for Active; 'I' for Inactive)
REMARK    1  A    between atoms: _1  and  _3
REMARK    2  A    between atoms: _3  and  _4
REMARK    3  A    between atoms: _3  and  _6
REMARK    4  A    between atoms: _6  and  _7
REMARK    5  A    between atoms: _10  and  _12
REMARK    6  A    between atoms: _12  and  _13
REMARK    7  A    between atoms: _12  and  _15
REMARK    8  A    between atoms: _19  and  _20
REMARK    9  A    between atoms: _25  and  _27
REMARK   10  A    between atoms: _27  and  _28
REMARK   11  A    between atoms: _27  and  _30
REMARK   12  A    between atoms: _30  and  _31
REMARK   13  A    between atoms: _34  and  _36
REMARK   14  A    between atoms: _36  and  _37
REMARK   15  A    between atoms: _36  and  _39
REMARK   16  A    between atoms: _39  and  _40
REMARK   17  A    between atoms: _40  and  _41
REMARK   18  A    between atoms: _43  and  _45
REMARK   19  A    between atoms: _45  and  _46
REMARK   20  A    between atoms: _48  and  _50
REMARK   21  A    between atoms: _50  and  _51
REMARK   22  A    between atoms: _54  and  _56
REMARK   23  A    between atoms: _56  and  _57
REMARK   24  A    between atoms: _56  and  _59
REMARK   25  A    between atoms: _59  and  _60
REMARK   26  A    between atoms: _63  and  _65
REMARK   27  A    between atoms: _65  and  _66
REMARK   28  A    between atoms: _65  and  _68
REMARK   29  A    between atoms: _68  and  _69
REMARK   30  A    between atoms: _74  and  _76
REMARK   31  A    between atoms: _76  and  _77
REMARK   32  A    between atoms: _76  and  _79
REMARK   33  A    between atoms: _79  and  _80
REMARK   34  A    between atoms: _80  and  _81
REMARK   35  A    between atoms: _84  and  _86
REMARK   36  A    between atoms: _86  and  _87
REMARK   37  A    between atoms: _89  and  _91
REMARK   38  A    between atoms: _91  and  _92
REMARK   39  A    between atoms: _91  and  _94
REMARK   40  A    between atoms: _94  and  _95
REMARK   41  A    between atoms: _100  and  _102
REMARK   42  A    between atoms: _102  and  _103
REMARK   43  A    between atoms: _102  and  _105
REMARK   44  A    between atoms: _105  and  _106
REMARK   45  A    between atoms: _109  and  _111
REMARK   46  A    between atoms: _111  and  _112
REMARK   47  A    between atoms: _115  and  _117
REMARK   48  A    between atoms: _117  and  _118
REMARK   49  A    between atoms: _117  and  _120
REMARK   50  A    between atoms: _120  and  _121
REMARK   51  A    between atoms: _124  and  _126
REMARK   52  A    between atoms: _126  and  _127
REMARK   53  A    between atoms: _126  and  _129
REMARK   54  A    between atoms: _132  and  _134
REMARK   55  A    between atoms: _134  and  _135
REMARK   56  A    between atoms: _138  and  _140
REMARK   57  A    between atoms: _140  and  _141
REMARK   58  A    between atoms: _140  and  _143
REMARK   59  A    between atoms: _143  and  _144
REMARK   60  A    between atoms: _146  and  _148
REMARK   61  A    between atoms: _148  and  _149
REMARK   62  A    between atoms: _148  and  _151
REMARK   63  A    between atoms: _151  and  _152
REMARK   64  A    between atoms: _155  and  _157
REMARK   65  A    between atoms: _157  and  _158
REMARK   66  A    between atoms: _157  and  _160
REMARK   67  A    between atoms: _160  and  _161
REMARK   68  A    between atoms: _167  and  _169
REMARK   69  A    between atoms: _169  and  _170
REMARK   70  A    between atoms: _169  and  _172
REMARK   71  A    between atoms: _175  and  _177
REMARK   72  A    between atoms: _177  and  _178
REMARK   73  A    between atoms: _177  and  _180
REMARK   74  A    between atoms: _180  and  _181
REMARK   75  A    between atoms: _186  and  _188
REMARK   76  A    between atoms: _188  and  _189
REMARK   77  A    between atoms: _188  and  _191
REMARK   78  A    between atoms: _191  and  _192
REMARK   79  A    between atoms: _192  and  _193
REMARK   80  A    between atoms: _198  and  _200
REMARK   81  A    between atoms: _200  and  _201
REMARK   82  A    between atoms: _200  and  _203
REMARK   83  A    between atoms: _203  and  _204
REMARK   84  A    between atoms: _209  and  _210
REMARK   85  A    between atoms: _213  and  _214
REMARK   86  A    between atoms: _219  and  _221
REMARK   87  A    between atoms: _221  and  _222
REMARK   88  A    between atoms: _224  and  _226
REMARK   89  A    between atoms: _226  and  _227
REMARK   90  A    between atoms: _226  and  _229
REMARK   91  A    between atoms: _232  and  _234
REMARK   92  A    between atoms: _234  and  _235
REMARK   93  A    between atoms: _234  and  _237
REMARK   94  A    between atoms: _237  and  _238
REMARK   95  A    between atoms: _241  and  _243
REMARK   96  A    between atoms: _243  and  _244
REMARK   97  A    between atoms: _243  and  _246
REMARK   98  A    between atoms: _249  and  _251
REMARK   99  A    between atoms: _251  and  _252
REMARK  100  A    between atoms: _251  and  _254
REMARK  101  A    between atoms: _257  and  _259
REMARK  102  A    between atoms: _259  and  _260
REMARK  103  A    between atoms: _259  and  _262
REMARK  104  A    between atoms: _262  and  _263
REMARK  105  A    between atoms: _266  and  _268
REMARK  106  A    between atoms: _268  and  _269
REMARK  107  A    between atoms: _268  and  _271
REMARK  108  A    between atoms: _271  and  _272
REMARK  109  A    between atoms: _275  and  _277
REMARK  110  A    between atoms: _277  and  _278
REMARK  111  A    between atoms: _277  and  _280
REMARK  112  A    between atoms: _283  and  _285
REMARK  113  A    between atoms: _285  and  _286
REMARK  114  A    between atoms: _285  and  _288
REMARK  115  A    between atoms: _288  and  _289
REMARK  116  A    between atoms: _295  and  _297
REMARK  117  A    between atoms: _297  and  _298
REMARK  118  A    between atoms: _297  and  _300
REMARK  119  A    between atoms: _300  and  _301
REMARK  120  A    between atoms: _307  and  _309
REMARK  121  A    between atoms: _309  and  _310
REMARK  122  A    between atoms: _312  and  _314
REMARK  123  A    between atoms: _314  and  _315
REMARK  124  A    between atoms: _314  and  _317
REMARK  125  A    between atoms: _317  and  _318
REMARK  126  A    between atoms: _318  and  _319
REMARK  127  A    between atoms: _322  and  _324
REMARK  128  A    between atoms: _324  and  _325
REMARK  129  A    between atoms: _324  and  _327
REMARK  130  A    between atoms: _327  and  _328
REMARK  131  A    between atoms: _328  and  _329
REMARK  132  A    between atoms: _329  and  _330
REMARK  133  A    between atoms: _330  and  _331
REMARK  134  A    between atoms: _335  and  _337
REMARK  135  A    between atoms: _337  and  _338
REMARK  136  A    between atoms: _337  and  _340
REMARK  137  A    between atoms: _340  and  _341
REMARK  138  A    between atoms: _344  and  _346
REMARK  139  A    between atoms: _346  and  _347
REMARK  140  A    between atoms: _346  and  _349
REMARK  141  A    between atoms: _349  and  _350
REMARK  142  A    between atoms: _350  and  _351
REMARK  143  A    between atoms: _356  and  _358
REMARK  144  A    between atoms: _358  and  _359
REMARK  145  A    between atoms: _358  and  _361
REMARK  146  A    between atoms: _361  and  _362
REMARK  147  A    between atoms: _365  and  _367
REMARK  148  A    between atoms: _367  and  _368
REMARK  149  A    between atoms: _367  and  _370
REMARK  150  A    between atoms: _370  and  _371
REMARK  151  A    between atoms: _374  and  _376
REMARK  152  A    between atoms: _376  and  _377
REMARK  153  A    between atoms: _379  and  _381
REMARK  154  A    between atoms: _381  and  _382
REMARK  155  A    between atoms: _381  and  _384
REMARK  156  A    between atoms: _388  and  _389
REMARK  157  A    between atoms: _394  and  _396
REMARK  158  A    between atoms: _396  and  _397
REMARK  159  A    between atoms: _396  and  _399
REMARK  160  A    between atoms: _399  and  _400
REMARK  161  A    between atoms: _403  and  _405
REMARK  162  A    between atoms: _405  and  _406
REMARK  163  A    between atoms: _405  and  _408
REMARK  164  A    between atoms: _411  and  _413
REMARK  165  A    between atoms: _413  and  _414
REMARK  166  A    between atoms: _413  and  _416
REMARK  167  A    between atoms: _416  and  _417
REMARK  168  A    between atoms: _417  and  _418
REMARK  169  A    between atoms: _418  and  _419
REMARK  170  A    between atoms: _428  and  _430
REMARK  171  A    between atoms: _430  and  _431
REMARK  172  A    between atoms: _430  and  _433
REMARK  173  A    between atoms: _433  and  _434
REMARK  174  A    between atoms: _437  and  _439
REMARK  175  A    between atoms: _439  and  _440
REMARK  176  A    between atoms: _443  and  _445
REMARK  177  A    between atoms: _445  and  _446
REMARK  178  A    between atoms: _445  and  _448
REMARK  179  A    between atoms: _448  and  _449
REMARK  180  A    between atoms: _449  and  _450
REMARK  181  A    between atoms: _452  and  _454
REMARK  182  A    between atoms: _454  and  _455
REMARK  183  A    between atoms: _454  and  _457
REMARK  184  A    between atoms: _457  and  _458
REMARK  185  A    between atoms: _460  and  _462
REMARK  186  A    between atoms: _462  and  _463
REMARK  187  A    between atoms: _462  and  _465
REMARK  188  A    between atoms: _465  and  _466
REMARK  189  A    between atoms: _468  and  _470
REMARK  190  A    between atoms: _470  and  _471
REMARK  191  A    between atoms: _470  and  _473
REMARK  192  A    between atoms: _473  and  _474
REMARK  193  A    between atoms: _474  and  _475
REMARK  194  A    between atoms: _475  and  _476
REMARK  195  A    between atoms: _485  and  _487
REMARK  196  A    between atoms: _487  and  _488
REMARK  197  A    between atoms: _487  and  _490
REMARK  198  A    between atoms: _490  and  _491
REMARK  199  A    between atoms: _496  and  _498
REMARK  200  A    between atoms: _498  and  _499
REMARK  201  A    between atoms: _498  and  _501
REMARK  202  A    between atoms: _501  and  _502
REMARK  203  A    between atoms: _502  and  _503
REMARK  204  A    between atoms: _503  and  _504
REMARK  205  A    between atoms: _513  and  _515
REMARK  206  A    between atoms: _515  and  _516
REMARK  207  A    between atoms: _515  and  _518
REMARK  208  A    between atoms: _518  and  _519
REMARK  209  A    between atoms: _519  and  _520
REMARK  210  A    between atoms: _520  and  _521
REMARK  211  A    between atoms: _530  and  _532
REMARK  212  A    between atoms: _532  and  _533
REMARK  213  A    between atoms: _532  and  _535
REMARK  214  A    between atoms: _535  and  _536
REMARK  215  A    between atoms: _539  and  _541
REMARK  216  A    between atoms: _541  and  _542
REMARK  217  A    between atoms: _541  and  _544
REMARK  218  A    between atoms: _544  and  _545
REMARK  219  A    between atoms: _548  and  _550
REMARK  220  A    between atoms: _550  and  _551
REMARK  221  A    between atoms: _550  and  _553
REMARK  222  A    between atoms: _553  and  _554
REMARK                            x       y       z     vdW  Elec       q    Type
REMARK                         _______ _______ _______ _____ _____    ______ ____
ROOT
ATOM      1  CA  TYR A   1      24.922  16.660   6.936  0.00  0.00    +0.149 C 
ENDROOT
BRANCH   1   2
ATOM      2  C   TYR A   1      24.340  17.993   6.415  0.00  0.00    +0.242 C 
ATOM      3  O   TYR A   1      24.319  18.993   7.156  0.00  0.00    -0.273 OA
ATOM      4  N   PRO A   2      23.902  18.041   5.123  0.00  0.00    -0.273 N 
ATOM      5  CA  PRO A   2      23.425  19.348   4.598  0.00  0.00    +0.140 C 
ATOM      6  CB  PRO A   2      23.086  19.054   3.128  0.00  0.00    +0.030 C 
ATOM      7  CG  PRO A   2      22.883  17.565   3.071  0.00  0.00    +0.024 C 
ATOM      8  CD  PRO A   2      23.839  16.989   4.090  0.00  0.00    +0.094 C 
BRANCH   5   9
ATOM      9  C   PRO A   2      22.180  19.859   5.307  0.00  0.00    +0.227 C 
ATOM     10  O   PRO A   2      21.214  19.112   5.487  0.00  0.00    -0.286 OA
ENDBRANCH   5   9
ENDBRANCH   1   2
BRANCH   1  11
ATOM     11  N   TYR A   1      26.172  16.848   7.665  0.00  0.00    -0.238 NA
ATOM     12  H   TYR A   1      26.259  16.524   8.649  0.00  0.00    +0.142 HD
ENDBRANCH   1  11
BRANCH   1  13
ATOM     13  CB  TYR A   1      23.907  15.873   7.777  0.00  0.00    +0.053 C 
BRANCH  13  14
ATOM     14  CG  TYR A   1      22.834  15.249   6.910  0.00  0.00    -0.020 A 
ATOM     15  CD2 TYR A   1      21.608  15.876   6.715  0.00  0.00    -0.001 A 
ATOM     16  CE2 TYR A   1      20.622  15.305   5.886  0.00  0.00    +0.036 A 
ATOM     17  CZ  TYR A   1      20.863  14.097   5.268  0.00  0.00    +0.134 A 
ATOM     18  CE1 TYR A   1      22.065  13.447   5.459  0.00  0.00    +0.036 A 
ATOM     19  CD1 TYR A   1      23.048  14.030   6.284  0.00  0.00    -0.001 A 
BRANCH  17  20
ATOM     20  OH  TYR A   1      19.914  13.497   4.471  0.00  0.00    -0.506 OA
ATOM     21  HH  TYR A   1      20.272  12.643   4.120  0.00  0.00    +0.292 HD
ENDBRANCH  17  20
ENDBRANCH  13  14
ENDBRANCH   1  13
TORSDOF 6
REMARK  Name = ../refined-set-2016/3ivx/3ivx_pocket.pdb
REMARK  222 active torsions:
REMARK  status: ('A' for Active; 'I' for Inactive)
REMARK    1  A    between atoms: _1  and  _3
REMARK    2  A    between atoms: _3  and  _4
REMARK    3  A    between atoms: _3  and  _6
REMARK    4  A    between atoms: _6  and  _7
REMARK    5  A    between atoms: _10  and  _12
REMARK    6  A    between atoms: _12  and  _13
REMARK    7  A    between atoms: _12  and  _15
REMARK    8  A    between atoms: _19  and  _20
REMARK    9  A    between atoms: _25  and  _27
REMARK   10  A    between atoms: _27  and  _28
REMARK   11  A    between atoms: _27  and  _30
REMARK   12  A    between atoms: _30  and  _31
REMARK   13  A    between atoms: _34  and  _36
REMARK   14  A    between atoms: _36  and  _37
REMARK   15  A    between atoms: _36  and  _39
REMARK   16  A    between atoms: _39  and  _40
REMARK   17  A    between atoms: _40  and  _41
REMARK   18  A    between atoms: _43  and  _45
REMARK   19  A    between atoms: _45  and  _46
REMARK   20  A    between atoms: _48  and  _50
REMARK   21  A    between atoms: _50  and  _51
REMARK   22  A    between atoms: _54  and  _56
REMARK   23  A    between atoms: _56  and  _57
REMARK   24  A    between atoms: _56  and  _59
REMARK   25  A    between atoms: _59  and  _60
REMARK   26  A    between atoms: _63  and  _65
REMARK   27  A    between atoms: _65  and  _66
REMARK   28  A    between atoms: _65  and  _68
REMARK   29  A    between atoms: _68  and  _69
REMARK   30  A    between atoms: _74  and  _76
REMARK   31  A    between atoms: _76  and  _77
REMARK   32  A    between atoms: _76  and  _79
REMARK   33  A    between atoms: _79  and  _80
REMARK   34  A    between atoms: _80  and  _81
REMARK   35  A    between atoms: _84  and  _86
REMARK   36  A    between atoms: _86  and  _87
REMARK   37  A    between atoms: _89  and  _91
REMARK   38  A    between atoms: _91  and  _92
REMARK   39  A    between atoms: _91  and  _94
REMARK   40  A    between atoms: _94  and  _95
REMARK   41  A    between atoms: _100  and  _102
REMARK   42  A    between atoms: _102  and  _103
REMARK   43  A    between atoms: _102  and  _105
REMARK   44  A    between atoms: _105  and  _106
REMARK   45  A    between atoms: _109  and  _111
REMARK   46  A    between atoms: _111  and  _112
REMARK   47  A    between atoms: _115  and  _117
REMARK   48  A    between atoms: _117  and  _118
REMARK   49  A    between atoms: _117  and  _120
REMARK   50  A    between atoms: _120  and  _121
REMARK   51  A    between atoms: _124  and  _126
REMARK   52  A    between atoms: _126  and  _127
REMARK   53  A    between atoms: _126  and  _129
REMARK   54  A    between atoms: _132  and  _134
REMARK   55  A    between atoms: _134  and  _135
REMARK   56  A    between atoms: _138  and  _140
REMARK   57  A    between atoms: _140  and  _141
REMARK   58  A    between atoms: _140  and  _143
REMARK   59  A    between atoms: _143  and  _144
REMARK   60  A    between atoms: _146  and  _148
REMARK   61  A    between atoms: _148  and  _149
REMARK   62  A    between atoms: _148  and  _151
REMARK   63  A    between atoms: _151  and  _152
REMARK   64  A    between atoms: _155  and  _157
REMARK   65  A    between atoms: _157  and  _158
REMARK   66  A    between atoms: _157  and  _160
REMARK   67  A    between atoms: _160  and  _161
REMARK   68  A    between atoms: _167  and  _169
REMARK   69  A    between atoms: _169  and  _170
REMARK   70  A    between atoms: _169  and  _172
REMARK   71  A    between atoms: _175  and  _177
REMARK   72  A    between atoms: _177  and  _178
REMARK   73  A    between atoms: _177  and  _180
REMARK   74  A    between atoms: _180  and  _181
REMARK   75  A    between atoms: _186  and  _188
REMARK   76  A    between atoms: _188  and  _189
REMARK   77  A    between atoms: _188  and  _191
REMARK   78  A    between atoms: _191  and  _192
REMARK   79  A    between atoms: _192  and  _193
REMARK   80  A    between atoms: _198  and  _200
REMARK   81  A    between atoms: _200  and  _201
REMARK   82  A    between atoms: _200  and  _203
REMARK   83  A    between atoms: _203  and  _204
REMARK   84  A    between atoms: _209  and  _210
REMARK   85  A    between atoms: _213  and  _214
REMARK   86  A    between atoms: _219  and  _221
REMARK   87  A    between atoms: _221  and  _222
REMARK   88  A    between atoms: _224  and  _226
REMARK   89  A    between atoms: _226  and  _227
REMARK   90  A    between atoms: _226  and  _229
REMARK   91  A    between atoms: _232  and  _234
REMARK   92  A    between atoms: _234  and  _235
REMARK   93  A    between atoms: _234  and  _237
REMARK   94  A    between atoms: _237  and  _238
REMARK   95  A    between atoms: _241  and  _243
REMARK   96  A    between atoms: _243  and  _244
REMARK   97  A    between atoms: _243  and  _246
REMARK   98  A    between atoms: _249  and  _251
REMARK   99  A    between atoms: _251  and  _252
REMARK  100  A    between atoms: _251  and  _254
REMARK  101  A    between atoms: _257  and  _259
REMARK  102  A    between atoms: _259  and  _260
REMARK  103  A    between atoms: _259  and  _262
REMARK  104  A    between atoms: _262  and  _263
REMARK  105  A    between atoms: _266  and  _268
REMARK  106  A    between atoms: _268  and  _269
REMARK  107  A    between atoms: _268  and  _271
REMARK  108  A    between atoms: _271  and  _272
REMARK  109  A    between atoms: _275  and  _277
REMARK  110  A    between atoms: _277  and  _278
REMARK  111  A    between atoms: _277  and  _280
REMARK  112  A    between atoms: _283  and  _285
REMARK  113  A    between atoms: _285  and  _286
REMARK  114  A    between atoms: _285  and  _288
REMARK  115  A    between atoms: _288  and  _289
REMARK  116  A    between atoms: _295  and  _297
REMARK  117  A    between atoms: _297  and  _298
REMARK  118  A    between atoms: _297  and  _300
REMARK  119  A    between atoms: _300  and  _301
REMARK  120  A    between atoms: _307  and  _309
REMARK  121  A    between atoms: _309  and  _310
REMARK  122  A    between atoms: _312  and  _314
REMARK  123  A    between atoms: _314  and  _315
REMARK  124  A    between atoms: _314  and  _317
REMARK  125  A    between atoms: _317  and  _318
REMARK  126  A    between atoms: _318  and  _319
REMARK  127  A    between atoms: _322  and  _324
REMARK  128  A    between atoms: _324  and  _325
REMARK  129  A    between atoms: _324  and  _327
REMARK  130  A    between atoms: _327  and  _328
REMARK  131  A    between atoms: _328  and  _329
REMARK  132  A    between atoms: _329  and  _330
REMARK  133  A    between atoms: _330  and  _331
REMARK  134  A    between atoms: _335  and  _337
REMARK  135  A    between atoms: _337  and  _338
REMARK  136  A    between atoms: _337  and  _340
REMARK  137  A    between atoms: _340  and  _341
REMARK  138  A    between atoms: _344  and  _346
REMARK  139  A    between atoms: _346  and  _347
REMARK  140  A    between atoms: _346  and  _349
REMARK  141  A    between atoms: _349  and  _350
REMARK  142  A    between atoms: _350  and  _351
REMARK  143  A    between atoms: _356  and  _358
REMARK  144  A    between atoms: _358  and  _359
REMARK  145  A    between atoms: _358  and  _361
REMARK  146  A    between atoms: _361  and  _362
REMARK  147  A    between atoms: _365  and  _367
REMARK  148  A    between atoms: _367  and  _368
REMARK  149  A    between atoms: _367  and  _370
REMARK  150  A    between atoms: _370  and  _371
REMARK  151  A    between atoms: _374  and  _376
REMARK  152  A    between atoms: _376  and  _377
REMARK  153  A    between atoms: _379  and  _381
REMARK  154  A    between atoms: _381  and  _382
REMARK  155  A    between atoms: _381  and  _384
REMARK  156  A    between atoms: _388  and  _389
REMARK  157  A    between atoms: _394  and  _396
REMARK  158  A    between atoms: _396  and  _397
REMARK  159  A    between atoms: _396  and  _399
REMARK  160  A    between atoms: _399  and  _400
REMARK  161  A    between atoms: _403  and  _405
REMARK  162  A    between atoms: _405  and  _406
REMARK  163  A    between atoms: _405  and  _408
REMARK  164  A    between atoms: _411  and  _413
REMARK  165  A    between atoms: _413  and  _414
REMARK  166  A    between atoms: _413  and  _416
REMARK  167  A    between atoms: _416  and  _417
REMARK  168  A    between atoms: _417  and  _418
REMARK  169  A    between atoms: _418  and  _419
REMARK  170  A    between atoms: _428  and  _430
REMARK  171  A    between atoms: _430  and  _431
REMARK  172  A    between atoms: _430  and  _433
REMARK  173  A    between atoms: _433  and  _434
REMARK  174  A    between atoms: _437  and  _439
REMARK  175  A    between atoms: _439  and  _440
REMARK  176  A    between atoms: _443  and  _445
REMARK  177  A    between atoms: _445  and  _446
REMARK  178  A    between atoms: _445  and  _448
REMARK  179  A    between atoms: _448  and  _449
REMARK  180  A    between atoms: _449  and  _450
REMARK  181  A    between atoms: _452  and  _454
REMARK  182  A    between atoms: _454  and  _455
REMARK  183  A    between atoms: _454  and  _457
REMARK  184  A    between atoms: _457  and  _458
REMARK  185  A    between atoms: _460  and  _462
REMARK  186  A    between atoms: _462  and  _463
REMARK  187  A    between atoms: _462  and  _465
REMARK  188  A    between atoms: _465  and  _466
REMARK  189  A    between atoms: _468  and  _470
REMARK  190  A    between atoms: _470  and  _471
REMARK  191  A    between atoms: _470  and  _473
REMARK  192  A    between atoms: _473  and  _474
REMARK  193  A    between atoms: _474  and  _475
REMARK  194  A    between atoms: _475  and  _476
REMARK  195  A    between atoms: _485  and  _487
REMARK  196  A    between atoms: _487  and  _488
REMARK  197  A    between atoms: _487  and  _490
REMARK  198  A    between atoms: _490  and  _491
REMARK  199  A    between atoms: _496  and  _498
REMARK  200  A    between atoms: _498  and  _499
REMARK  201  A    between atoms: _498  and  _501
REMARK  202  A    between atoms: _501  and  _502
REMARK  203  A    between atoms: _502  and  _503
REMARK  204  A    between atoms: _503  and  _504
REMARK  205  A    between atoms: _513  and  _515
REMARK  206  A    between atoms: _515  and  _516
REMARK  207  A    between atoms: _515  and  _518
REMARK  208  A    between atoms: _518  and  _519
REMARK  209  A    between atoms: _519  and  _520
REMARK  210  A    between atoms: _520  and  _521
REMARK  211  A    between atoms: _530  and  _532
REMARK  212  A    between atoms: _532  and  _533
REMARK  213  A    between atoms: _532  and  _535
REMARK  214  A    between atoms: _535  and  _536
REMARK  215  A    between atoms: _539  and  _541
REMARK  216  A    between atoms: _541  and  _542
REMARK  217  A    between atoms: _541  and  _544
REMARK  218  A    between atoms: _544  and  _545
REMARK  219  A    between atoms: _548  and  _550
REMARK  220  A    between atoms: _550  and  _551
REMARK  221  A    between atoms: _550  and  _553
REMARK  222  A    between atoms: _553  and  _554
REMARK                            x       y       z     vdW  Elec       q    Type
REMARK                         _______ _______ _______ _____ _____    ______ ____
ROOT
ATOM      1  CA  VAL A   2      16.609   4.863  11.542  0.00  0.00    +0.148 C 
ENDROOT
BRANCH   1   4
ATOM      2  C   GLY A   1      17.670   5.010  13.747  0.00  0.00    +0.240 C 
ATOM      3  O   GLY A   1      16.780   5.751  14.169  0.00  0.00    -0.274 OA
ATOM      4  N   VAL A   2      17.647   4.497  12.514  0.00  0.00    -0.297 N 
ATOM      5  H   VAL A   2      18.385   3.819  12.235  0.00  0.00    +0.150 HD
BRANCH   2   6
ATOM      6  CA  GLY A   1      18.819   4.547  14.651  0.00  0.00    +0.169 C 
BRANCH   6   7
ATOM      7  N   GLY A   1      19.070   3.091  14.519  0.00  0.00    -0.236 NA
ATOM      8  H   GLY A   1      19.982   2.764  14.142  0.00  0.00    +0.142 HD
ENDBRANCH   6   7
ENDBRANCH   2   6
ENDBRANCH   1   4
BRANCH   1   9
ATOM      9  C   VAL A   2      15.229   4.350  12.018  0.00  0.00    +0.241 C 
ATOM     10  N   LEU A   3      15.140   3.068  12.342  0.00  0.00    -0.298 N 
ATOM     11  H   LEU A   3      15.995   2.477  12.296  0.00  0.00    +0.150 HD
ATOM     12  O   VAL A   2      14.273   5.113  12.100  0.00  0.00    -0.273 OA
BRANCH  10  13
ATOM     13  CA  LEU A   3      13.890   2.462  12.759  0.00  0.00    +0.137 C 
BRANCH  13  14
ATOM     14  C   LEU A   3      13.373   3.077  14.054  0.00  0.00    +0.227 C 
ATOM     15  O   LEU A   3      12.169   3.277  14.223  0.00  0.00    -0.286 OA
ENDBRANCH  13  14
BRANCH  13  16
ATOM     16  CB  LEU A   3      14.079   0.942  12.905  0.00  0.00    +0.028 C 
BRANCH  16  17
ATOM     17  CG  LEU A   3      14.356   0.143  11.620  0.00  0.00    +0.002 C 
ATOM     18  CD2 LEU A   3      13.847  -1.309  11.727  0.00  0.00    +0.000 C 
ATOM     19  CD1 LEU A   3      13.817   0.814  10.380  0.00  0.00    +0.000 C 
ENDBRANCH  16  17
ENDBRANCH  13  16
ENDBRANCH  10  13
ENDBRANCH   1   9
BRANCH   1  20
ATOM     20  CB  VAL A   2      16.941   4.227  10.161  0.00  0.00    +0.027 C 
ATOM     21  CG2 VAL A   2      18.221   4.850   9.533  0.00  0.00    +0.002 C 
ATOM     22  CG1 VAL A   2      15.762   4.386   9.223  0.00  0.00    +0.002 C 
ENDBRANCH   1  20
TORSDOF 9
REMARK  Name = ../refined-set-2016/3ivx/3ivx_pocket.pdb
REMARK  222 active torsions:
REMARK  status: ('A' for Active; 'I' for Inactive)
REMARK    1  A    between atoms: _1  and  _3
REMARK    2  A    between atoms: _3  and  _4
REMARK    3  A    between atoms: _3  and  _6
REMARK    4  A    between atoms: _6  and  _7
REMARK    5  A    between atoms: _10  and  _12
REMARK    6  A    between atoms: _12  and  _13
REMARK    7  A    between atoms: _12  and  _15
REMARK    8  A    between atoms: _19  and  _20
REMARK    9  A    between atoms: _25  and  _27
REMARK   10  A    between atoms: _27  and  _28
REMARK   11  A    between atoms: _27  and  _30
REMARK   12  A    between atoms: _30  and  _31
REMARK   13  A    between atoms: _34  and  _36
REMARK   14  A    between atoms: _36  and  _37
REMARK   15  A    between atoms: _36  and  _39
REMARK   16  A    between atoms: _39  and  _40
REMARK   17  A    between atoms: _40  and  _41
REMARK   18  A    between atoms: _43  and  _45
REMARK   19  A    between atoms: _45  and  _46
REMARK   20  A    between atoms: _48  and  _50
REMARK   21  A    between atoms: _50  and  _51
REMARK   22  A    between atoms: _54  and  _56
REMARK   23  A    between atoms: _56  and  _57
REMARK   24  A    between atoms: _56  and  _59
REMARK   25  A    between atoms: _59  and  _60
REMARK   26  A    between atoms: _63  and  _65
REMARK   27  A    between atoms: _65  and  _66
REMARK   28  A    between atoms: _65  and  _68
REMARK   29  A    between atoms: _68  and  _69
REMARK   30  A    between atoms: _74  and  _76
REMARK   31  A    between atoms: _76  and  _77
REMARK   32  A    between atoms: _76  and  _79
REMARK   33  A    between atoms: _79  and  _80
REMARK   34  A    between atoms: _80  and  _81
REMARK   35  A    between atoms: _84  and  _86
REMARK   36  A    between atoms: _86  and  _87
REMARK   37  A    between atoms: _89  and  _91
REMARK   38  A    between atoms: _91  and  _92
REMARK   39  A    between atoms: _91  and  _94
REMARK   40  A    between atoms: _94  and  _95
REMARK   41  A    between atoms: _100  and  _102
REMARK   42  A    between atoms: _102  and  _103
REMARK   43  A    between atoms: _102  and  _105
REMARK   44  A    between atoms: _105  and  _106
REMARK   45  A    between atoms: _109  and  _111
REMARK   46  A    between atoms: _111  and  _112
REMARK   47  A    between atoms: _115  and  _117
REMARK   48  A    between atoms: _117  and  _118
REMARK   49  A    between atoms: _117  and  _120
REMARK   50  A    between atoms: _120  and  _121
REMARK   51  A    between atoms: _124  and  _126
REMARK   52  A    between atoms: _126  and  _127
REMARK   53  A    between atoms: _126  and  _129
REMARK   54  A    between atoms: _132  and  _134
REMARK   55  A    between atoms: _134  and  _135
REMARK   56  A    between atoms: _138  and  _140
REMARK   57  A    between atoms: _140  and  _141
REMARK   58  A    between atoms: _140  and  _143
REMARK   59  A    between atoms: _143  and  _144
REMARK   60  A    between atoms: _146  and  _148
REMARK   61  A    between atoms: _148  and  _149
REMARK   62  A    between atoms: _148  and  _151
REMARK   63  A    between atoms: _151  and  _152
REMARK   64  A    between atoms: _155  and  _157
REMARK   65  A    between atoms: _157  and  _158
REMARK   66  A    between atoms: _157  and  _160
REMARK   67  A    between atoms: _160  and  _161
REMARK   68  A    between atoms: _167  and  _169
REMARK   69  A    between atoms: _169  and  _170
REMARK   70  A    between atoms: _169  and  _172
REMARK   71  A    between atoms: _175  and  _177
REMARK   72  A    between atoms: _177  and  _178
REMARK   73  A    between atoms: _177  and  _180
REMARK   74  A    between atoms: _180  and  _181
REMARK   75  A    between atoms: _186  and  _188
REMARK   76  A    between atoms: _188  and  _189
REMARK   77  A    between atoms: _188  and  _191
REMARK   78  A    between atoms: _191  and  _192
REMARK   79  A    between atoms: _192  and  _193
REMARK   80  A    between atoms: _198  and  _200
REMARK   81  A    between atoms: _200  and  _201
REMARK   82  A    between atoms: _200  and  _203
REMARK   83  A    between atoms: _203  and  _204
REMARK   84  A    between atoms: _209  and  _210
REMARK   85  A    between atoms: _213  and  _214
REMARK   86  A    between atoms: _219  and  _221
REMARK   87  A    between atoms: _221  and  _222
REMARK   88  A    between atoms: _224  and  _226
REMARK   89  A    between atoms: _226  and  _227
REMARK   90  A    between atoms: _226  and  _229
REMARK   91  A    between atoms: _232  and  _234
REMARK   92  A    between atoms: _234  and  _235
REMARK   93  A    between atoms: _234  and  _237
REMARK   94  A    between atoms: _237  and  _238
REMARK   95  A    between atoms: _241  and  _243
REMARK   96  A    between atoms: _243  and  _244
REMARK   97  A    between atoms: _243  and  _246
REMARK   98  A    between atoms: _249  and  _251
REMARK   99  A    between atoms: _251  and  _252
REMARK  100  A    between atoms: _251  and  _254
REMARK  101  A    between atoms: _257  and  _259
REMARK  102  A    between atoms: _259  and  _260
REMARK  103  A    between atoms: _259  and  _262
REMARK  104  A    between atoms: _262  and  _263
REMARK  105  A    between atoms: _266  and  _268
REMARK  106  A    between atoms: _268  and  _269
REMARK  107  A    between atoms: _268  and  _271
REMARK  108  A    between atoms: _271  and  _272
REMARK  109  A    between atoms: _275  and  _277
REMARK  110  A    between atoms: _277  and  _278
REMARK  111  A    between atoms: _277  and  _280
REMARK  112  A    between atoms: _283  and  _285
REMARK  113  A    between atoms: _285  and  _286
REMARK  114  A    between atoms: _285  and  _288
REMARK  115  A    between atoms: _288  and  _289
REMARK  116  A    between atoms: _295  and  _297
REMARK  117  A    between atoms: _297  and  _298
REMARK  118  A    between atoms: _297  and  _300
REMARK  119  A    between atoms: _300  and  _301
REMARK  120  A    between atoms: _307  and  _309
REMARK  121  A    between atoms: _309  and  _310
REMARK  122  A    between atoms: _312  and  _314
REMARK  123  A    between atoms: _314  and  _315
REMARK  124  A    between atoms: _314  and  _317
REMARK  125  A    between atoms: _317  and  _318
REMARK  126  A    between atoms: _318  and  _319
REMARK  127  A    between atoms: _322  and  _324
REMARK  128  A    between atoms: _324  and  _325
REMARK  129  A    between atoms: _324  and  _327
REMARK  130  A    between atoms: _327  and  _328
REMARK  131  A    between atoms: _328  and  _329
REMARK  132  A    between atoms: _329  and  _330
REMARK  133  A    between atoms: _330  and  _331
REMARK  134  A    between atoms: _335  and  _337
REMARK  135  A    between atoms: _337  and  _338
REMARK  136  A    between atoms: _337  and  _340
REMARK  137  A    between atoms: _340  and  _341
REMARK  138  A    between atoms: _344  and  _346
REMARK  139  A    between atoms: _346  and  _347
REMARK  140  A    between atoms: _346  and  _349
REMARK  141  A    between atoms: _349  and  _350
REMARK  142  A    between atoms: _350  and  _351
REMARK  143  A    between atoms: _356  and  _358
REMARK  144  A    between atoms: _358  and  _359
REMARK  145  A    between atoms: _358  and  _361
REMARK  146  A    between atoms: _361  and  _362
REMARK  147  A    between atoms: _365  and  _367
REMARK  148  A    between atoms: _367  and  _368
REMARK  149  A    between atoms: _367  and  _370
REMARK  150  A    between atoms: _370  and  _371
REMARK  151  A    between atoms: _374  and  _376
REMARK  152  A    between atoms: _376  and  _377
REMARK  153  A    between atoms: _379  and  _381
REMARK  154  A    between atoms: _381  and  _382
REMARK  155  A    between atoms: _381  and  _384
REMARK  156  A    between atoms: _388  and  _389
REMARK  157  A    between atoms: _394  and  _396
REMARK  158  A    between atoms: _396  and  _397
REMARK  159  A    between atoms: _396  and  _399
REMARK  160  A    between atoms: _399  and  _400
REMARK  161  A    between atoms: _403  and  _405
REMARK  162  A    between atoms: _405  and  _406
REMARK  163  A    between atoms: _405  and  _408
REMARK  164  A    between atoms: _411  and  _413
REMARK  165  A    between atoms: _413  and  _414
REMARK  166  A    between atoms: _413  and  _416
REMARK  167  A    between atoms: _416  and  _417
REMARK  168  A    between atoms: _417  and  _418
REMARK  169  A    between atoms: _418  and  _419
REMARK  170  A    between atoms: _428  and  _430
REMARK  171  A    between atoms: _430  and  _431
REMARK  172  A    between atoms: _430  and  _433
REMARK  173  A    between atoms: _433  and  _434
REMARK  174  A    between atoms: _437  and  _439
REMARK  175  A    between atoms: _439  and  _440
REMARK  176  A    between atoms: _443  and  _445
REMARK  177  A    between atoms: _445  and  _446
REMARK  178  A    between atoms: _445  and  _448
REMARK  179  A    between atoms: _448  and  _449
REMARK  180  A    between atoms: _449  and  _450
REMARK  181  A    between atoms: _452  and  _454
REMARK  182  A    between atoms: _454  and  _455
REMARK  183  A    between atoms: _454  and  _457
REMARK  184  A    between atoms: _457  and  _458
REMARK  185  A    between atoms: _460  and  _462
REMARK  186  A    between atoms: _462  and  _463
REMARK  187  A    between atoms: _462  and  _465
REMARK  188  A    between atoms: _465  and  _466
REMARK  189  A    between atoms: _468  and  _470
REMARK  190  A    between atoms: _470  and  _471
REMARK  191  A    between atoms: _470  and  _473
REMARK  192  A    between atoms: _473  and  _474
REMARK  193  A    between atoms: _474  and  _475
REMARK  194  A    between atoms: _475  and  _476
REMARK  195  A    between atoms: _485  and  _487
REMARK  196  A    between atoms: _487  and  _488
REMARK  197  A    between atoms: _487  and  _490
REMARK  198  A    between atoms: _490  and  _491
REMARK  199  A    between atoms: _496  and  _498
REMARK  200  A    between atoms: _498  and  _499
REMARK  201  A    between atoms: _498  and  _501
REMARK  202  A    between atoms: _501  and  _502
REMARK  203  A    between atoms: _502  and  _503
REMARK  204  A    between atoms: _503  and  _504
REMARK  205  A    between atoms: _513  and  _515
REMARK  206  A    between atoms: _515  and  _516
REMARK  207  A    between atoms: _515  and  _518
REMARK  208  A    between atoms: _518  and  _519
REMARK  209  A    between atoms: _519  and  _520
REMARK  210  A    between atoms: _520  and  _521
REMARK  211  A    between atoms: _530  and  _532
REMARK  212  A    between atoms: _532  and  _533
REMARK  213  A    between atoms: _532  and  _535
REMARK  214  A    between atoms: _535  and  _536
REMARK  215  A    between atoms: _539  and  _541
REMARK  216  A    between atoms: _541  and  _542
REMARK  217  A    between atoms: _541  and  _544
REMARK  218  A    between atoms: _544  and  _545
REMARK  219  A    between atoms: _548  and  _550
REMARK  220  A    between atoms: _550  and  _551
REMARK  221  A    between atoms: _550  and  _553
REMARK  222  A    between atoms: _553  and  _554
REMARK                            x       y       z     vdW  Elec       q    Type
REMARK                         _______ _______ _______ _____ _____    ______ ____
ROOT
ATOM      1  CA  VAL A   2      10.675   6.303  12.190  0.00  0.00    +0.148 C 
ENDROOT
BRANCH   1   4
ATOM      2  C   VAL A   1      11.881   7.382  13.964  0.00  0.00    +0.238 C 
ATOM      3  O   VAL A   1      10.908   8.075  14.234  0.00  0.00    -0.274 OA
ATOM      4  N   VAL A   2      11.871   6.488  12.984  0.00  0.00    -0.297 N 
ATOM      5  H   VAL A   2      12.720   5.921  12.787  0.00  0.00    +0.150 HD
BRANCH   2   6
ATOM      6  CA  VAL A   1      13.177   7.524  14.760  0.00  0.00    +0.145 C 
BRANCH   6   7
ATOM      7  CB  VAL A   1      14.191   8.558  14.164  0.00  0.00    +0.025 C 
ATOM      8  CG2 VAL A   1      13.763  10.046  14.502  0.00  0.00    +0.002 C 
ATOM      9  CG1 VAL A   1      14.423   8.339  12.662  0.00  0.00    +0.002 C 
ENDBRANCH   6   7
BRANCH   6  10
ATOM     10  N   VAL A   1      13.785   6.241  15.068  0.00  0.00    -0.238 NA
ATOM     11  H   VAL A   1      14.696   5.968  14.648  0.00  0.00    +0.142 HD
ENDBRANCH   6  10
ENDBRANCH   2   6
ENDBRANCH   1   4
BRANCH   1  12
ATOM     12  C   VAL A   2       9.522   5.794  13.092  0.00  0.00    +0.241 C 
ATOM     13  N   LEU A   3       9.805   4.893  14.036  0.00  0.00    -0.298 N 
ATOM     14  H   LEU A   3      10.773   4.524  14.128  0.00  0.00    +0.150 HD
ATOM     15  O   VAL A   2       8.386   6.239  12.939  0.00  0.00    -0.273 OA
BRANCH  13  16
ATOM     16  CA  LEU A   3       8.749   4.421  14.947  0.00  0.00    +0.137 C 
BRANCH  16  17
ATOM     17  C   LEU A   3       8.161   5.613  15.710  0.00  0.00    +0.227 C 
ATOM     18  O   LEU A   3       6.938   5.761  15.844  0.00  0.00    -0.286 OA
ENDBRANCH  16  17
BRANCH  16  19
ATOM     19  CB  LEU A   3       9.277   3.371  15.947  0.00  0.00    +0.028 C 
BRANCH  19  20
ATOM     20  CG  LEU A   3       8.262   2.814  16.954  0.00  0.00    +0.002 C 
ATOM     21  CD2 LEU A   3       8.835   1.662  17.807  0.00  0.00    +0.000 C 
ATOM     22  CD1 LEU A   3       6.990   2.304  16.192  0.00  0.00    +0.000 C 
ENDBRANCH  19  20
ENDBRANCH  16  19
ENDBRANCH  13  16
ENDBRANCH   1  12
BRANCH   1  23
ATOM     23  CB  VAL A   2      10.955   5.321  11.050  0.00  0.00    +0.027 C 
ATOM     24  CG2 VAL A   2       9.592   4.862  10.352  0.00  0.00    +0.002 C 
ATOM     25  CG1 VAL A   2      11.936   5.942  10.068  0.00  0.00    +0.002 C 
ENDBRANCH   1  23
TORSDOF 10
REMARK  Name = ../refined-set-2016/3ivx/3ivx_pocket.pdb
REMARK  222 active torsions:
REMARK  status: ('A' for Active; 'I' for Inactive)
REMARK    1  A    between atoms: _1  and  _3
REMARK    2  A    between atoms: _3  and  _4
REMARK    3  A    between atoms: _3  and  _6
REMARK    4  A    between atoms: _6  and  _7
REMARK    5  A    between atoms: _10  and  _12
REMARK    6  A    between atoms: _12  and  _13
REMARK    7  A    between atoms: _12  and  _15
REMARK    8  A    between atoms: _19  and  _20
REMARK    9  A    between atoms: _25  and  _27
REMARK   10  A    between atoms: _27  and  _28
REMARK   11  A    between atoms: _27  and  _30
REMARK   12  A    between atoms: _30  and  _31
REMARK   13  A    between atoms: _34  and  _36
REMARK   14  A    between atoms: _36  and  _37
REMARK   15  A    between atoms: _36  and  _39
REMARK   16  A    between atoms: _39  and  _40
REMARK   17  A    between atoms: _40  and  _41
REMARK   18  A    between atoms: _43  and  _45
REMARK   19  A    between atoms: _45  and  _46
REMARK   20  A    between atoms: _48  and  _50
REMARK   21  A    between atoms: _50  and  _51
REMARK   22  A    between atoms: _54  and  _56
REMARK   23  A    between atoms: _56  and  _57
REMARK   24  A    between atoms: _56  and  _59
REMARK   25  A    between atoms: _59  and  _60
REMARK   26  A    between atoms: _63  and  _65
REMARK   27  A    between atoms: _65  and  _66
REMARK   28  A    between atoms: _65  and  _68
REMARK   29  A    between atoms: _68  and  _69
REMARK   30  A    between atoms: _74  and  _76
REMARK   31  A    between atoms: _76  and  _77
REMARK   32  A    between atoms: _76  and  _79
REMARK   33  A    between atoms: _79  and  _80
REMARK   34  A    between atoms: _80  and  _81
REMARK   35  A    between atoms: _84  and  _86
REMARK   36  A    between atoms: _86  and  _87
REMARK   37  A    between atoms: _89  and  _91
REMARK   38  A    between atoms: _91  and  _92
REMARK   39  A    between atoms: _91  and  _94
REMARK   40  A    between atoms: _94  and  _95
REMARK   41  A    between atoms: _100  and  _102
REMARK   42  A    between atoms: _102  and  _103
REMARK   43  A    between atoms: _102  and  _105
REMARK   44  A    between atoms: _105  and  _106
REMARK   45  A    between atoms: _109  and  _111
REMARK   46  A    between atoms: _111  and  _112
REMARK   47  A    between atoms: _115  and  _117
REMARK   48  A    between atoms: _117  and  _118
REMARK   49  A    between atoms: _117  and  _120
REMARK   50  A    between atoms: _120  and  _121
REMARK   51  A    between atoms: _124  and  _126
REMARK   52  A    between atoms: _126  and  _127
REMARK   53  A    between atoms: _126  and  _129
REMARK   54  A    between atoms: _132  and  _134
REMARK   55  A    between atoms: _134  and  _135
REMARK   56  A    between atoms: _138  and  _140
REMARK   57  A    between atoms: _140  and  _141
REMARK   58  A    between atoms: _140  and  _143
REMARK   59  A    between atoms: _143  and  _144
REMARK   60  A    between atoms: _146  and  _148
REMARK   61  A    between atoms: _148  and  _149
REMARK   62  A    between atoms: _148  and  _151
REMARK   63  A    between atoms: _151  and  _152
REMARK   64  A    between atoms: _155  and  _157
REMARK   65  A    between atoms: _157  and  _158
REMARK   66  A    between atoms: _157  and  _160
REMARK   67  A    between atoms: _160  and  _161
REMARK   68  A    between atoms: _167  and  _169
REMARK   69  A    between atoms: _169  and  _170
REMARK   70  A    between atoms: _169  and  _172
REMARK   71  A    between atoms: _175  and  _177
REMARK   72  A    between atoms: _177  and  _178
REMARK   73  A    between atoms: _177  and  _180
REMARK   74  A    between atoms: _180  and  _181
REMARK   75  A    between atoms: _186  and  _188
REMARK   76  A    between atoms: _188  and  _189
REMARK   77  A    between atoms: _188  and  _191
REMARK   78  A    between atoms: _191  and  _192
REMARK   79  A    between atoms: _192  and  _193
REMARK   80  A    between atoms: _198  and  _200
REMARK   81  A    between atoms: _200  and  _201
REMARK   82  A    between atoms: _200  and  _203
REMARK   83  A    between atoms: _203  and  _204
REMARK   84  A    between atoms: _209  and  _210
REMARK   85  A    between atoms: _213  and  _214
REMARK   86  A    between atoms: _219  and  _221
REMARK   87  A    between atoms: _221  and  _222
REMARK   88  A    between atoms: _224  and  _226
REMARK   89  A    between atoms: _226  and  _227
REMARK   90  A    between atoms: _226  and  _229
REMARK   91  A    between atoms: _232  and  _234
REMARK   92  A    between atoms: _234  and  _235
REMARK   93  A    between atoms: _234  and  _237
REMARK   94  A    between atoms: _237  and  _238
REMARK   95  A    between atoms: _241  and  _243
REMARK   96  A    between atoms: _243  and  _244
REMARK   97  A    between atoms: _243  and  _246
REMARK   98  A    between atoms: _249  and  _251
REMARK   99  A    between atoms: _251  and  _252
REMARK  100  A    between atoms: _251  and  _254
REMARK  101  A    between atoms: _257  and  _259
REMARK  102  A    between atoms: _259  and  _260
REMARK  103  A    between atoms: _259  and  _262
REMARK  104  A    between atoms: _262  and  _263
REMARK  105  A    between atoms: _266  and  _268
REMARK  106  A    between atoms: _268  and  _269
REMARK  107  A    between atoms: _268  and  _271
REMARK  108  A    between atoms: _271  and  _272
REMARK  109  A    between atoms: _275  and  _277
REMARK  110  A    between atoms: _277  and  _278
REMARK  111  A    between atoms: _277  and  _280
REMARK  112  A    between atoms: _283  and  _285
REMARK  113  A    between atoms: _285  and  _286
REMARK  114  A    between atoms: _285  and  _288
REMARK  115  A    between atoms: _288  and  _289
REMARK  116  A    between atoms: _295  and  _297
REMARK  117  A    between atoms: _297  and  _298
REMARK  118  A    between atoms: _297  and  _300
REMARK  119  A    between atoms: _300  and  _301
REMARK  120  A    between atoms: _307  and  _309
REMARK  121  A    between atoms: _309  and  _310
REMARK  122  A    between atoms: _312  and  _314
REMARK  123  A    between atoms: _314  and  _315
REMARK  124  A    between atoms: _314  and  _317
REMARK  125  A    between atoms: _317  and  _318
REMARK  126  A    between atoms: _318  and  _319
REMARK  127  A    between atoms: _322  and  _324
REMARK  128  A    between atoms: _324  and  _325
REMARK  129  A    between atoms: _324  and  _327
REMARK  130  A    between atoms: _327  and  _328
REMARK  131  A    between atoms: _328  and  _329
REMARK  132  A    between atoms: _329  and  _330
REMARK  133  A    between atoms: _330  and  _331
REMARK  134  A    between atoms: _335  and  _337
REMARK  135  A    between atoms: _337  and  _338
REMARK  136  A    between atoms: _337  and  _340
REMARK  137  A    between atoms: _340  and  _341
REMARK  138  A    between atoms: _344  and  _346
REMARK  139  A    between atoms: _346  and  _347
REMARK  140  A    between atoms: _346  and  _349
REMARK  141  A    between atoms: _349  and  _350
REMARK  142  A    between atoms: _350  and  _351
REMARK  143  A    between atoms: _356  and  _358
REMARK  144  A    between atoms: _358  and  _359
REMARK  145  A    between atoms: _358  and  _361
REMARK  146  A    between atoms: _361  and  _362
REMARK  147  A    between atoms: _365  and  _367
REMARK  148  A    between atoms: _367  and  _368
REMARK  149  A    between atoms: _367  and  _370
REMARK  150  A    between atoms: _370  and  _371
REMARK  151  A    between atoms: _374  and  _376
REMARK  152  A    between atoms: _376  and  _377
REMARK  153  A    between atoms: _379  and  _381
REMARK  154  A    between atoms: _381  and  _382
REMARK  155  A    between atoms: _381  and  _384
REMARK  156  A    between atoms: _388  and  _389
REMARK  157  A    between atoms: _394  and  _396
REMARK  158  A    between atoms: _396  and  _397
REMARK  159  A    between atoms: _396  and  _399
REMARK  160  A    between atoms: _399  and  _400
REMARK  161  A    between atoms: _403  and  _405
REMARK  162  A    between atoms: _405  and  _406
REMARK  163  A    between atoms: _405  and  _408
REMARK  164  A    between atoms: _411  and  _413
REMARK  165  A    between atoms: _413  and  _414
REMARK  166  A    between atoms: _413  and  _416
REMARK  167  A    between atoms: _416  and  _417
REMARK  168  A    between atoms: _417  and  _418
REMARK  169  A    between atoms: _418  and  _419
REMARK  170  A    between atoms: _428  and  _430
REMARK  171  A    between atoms: _430  and  _431
REMARK  172  A    between atoms: _430  and  _433
REMARK  173  A    between atoms: _433  and  _434
REMARK  174  A    between atoms: _437  and  _439
REMARK  175  A    between atoms: _439  and  _440
REMARK  176  A    between atoms: _443  and  _445
REMARK  177  A    between atoms: _445  and  _446
REMARK  178  A    between atoms: _445  and  _448
REMARK  179  A    between atoms: _448  and  _449
REMARK  180  A    between atoms: _449  and  _450
REMARK  181  A    between atoms: _452  and  _454
REMARK  182  A    between atoms: _454  and  _455
REMARK  183  A    between atoms: _454  and  _457
REMARK  184  A    between atoms: _457  and  _458
REMARK  185  A    between atoms: _460  and  _462
REMARK  186  A    between atoms: _462  and  _463
REMARK  187  A    between atoms: _462  and  _465
REMARK  188  A    between atoms: _465  and  _466
REMARK  189  A    between atoms: _468  and  _470
REMARK  190  A    between atoms: _470  and  _471
REMARK  191  A    between atoms: _470  and  _473
REMARK  192  A    between atoms: _473  and  _474
REMARK  193  A    between atoms: _474  and  _475
REMARK  194  A    between atoms: _475  and  _476
REMARK  195  A    between atoms: _485  and  _487
REMARK  196  A    between atoms: _487  and  _488
REMARK  197  A    between atoms: _487  and  _490
REMARK  198  A    between atoms: _490  and  _491
REMARK  199  A    between atoms: _496  and  _498
REMARK  200  A    between atoms: _498  and  _499
REMARK  201  A    between atoms: _498  and  _501
REMARK  202  A    between atoms: _501  and  _502
REMARK  203  A    between atoms: _502  and  _503
REMARK  204  A    between atoms: _503  and  _504
REMARK  205  A    between atoms: _513  and  _515
REMARK  206  A    between atoms: _515  and  _516
REMARK  207  A    between atoms: _515  and  _518
REMARK  208  A    between atoms: _518  and  _519
REMARK  209  A    between atoms: _519  and  _520
REMARK  210  A    between atoms: _520  and  _521
REMARK  211  A    between atoms: _530  and  _532
REMARK  212  A    between atoms: _532  and  _533
REMARK  213  A    between atoms: _532  and  _535
REMARK  214  A    between atoms: _535  and  _536
REMARK  215  A    between atoms: _539  and  _541
REMARK  216  A    between atoms: _541  and  _542
REMARK  217  A    between atoms: _541  and  _544
REMARK  218  A    between atoms: _544  and  _545
REMARK  219  A    between atoms: _548  and  _550
REMARK  220  A    between atoms: _550  and  _551
REMARK  221  A    between atoms: _550  and  _553
REMARK  222  A    between atoms: _553  and  _554
REMARK                            x       y       z     vdW  Elec       q    Type
REMARK                         _______ _______ _______ _____ _____    ______ ____
ROOT
ATOM      1  CA  LEU A   1       7.484   9.818  14.068  0.00  0.00    +0.133 C 
ENDROOT
BRANCH   1   2
ATOM      2  N   LEU A   1       8.251   8.936  14.977  0.00  0.00    -0.239 NA
ATOM      3  H   LEU A   1       9.185   8.592  14.674  0.00  0.00    +0.142 HD
ENDBRANCH   1   2
BRANCH   1   4
ATOM      4  C   LEU A   1       6.088   9.244  13.758  0.00  0.00    +0.224 C 
ATOM      5  O   LEU A   1       5.095   9.974  13.721  0.00  0.00    -0.287 OA
ENDBRANCH   1   4
BRANCH   1   6
ATOM      6  CB  LEU A   1       8.248  10.075  12.767  0.00  0.00    +0.025 C 
BRANCH   6   7
ATOM      7  CG  LEU A   1       9.607  10.790  12.962  0.00  0.00    +0.002 C 
ATOM      8  CD2 LEU A   1       9.451  12.223  13.534  0.00  0.00    +0.000 C 
ATOM      9  CD1 LEU A   1      10.390  10.813  11.661  0.00  0.00    +0.000 C 
ENDBRANCH   6   7
ENDBRANCH   1   6
TORSDOF 4
REMARK  Name = ../refined-set-2016/3ivx/3ivx_pocket.pdb
REMARK  222 active torsions:
REMARK  status: ('A' for Active; 'I' for Inactive)
REMARK    1  A    between atoms: _1  and  _3
REMARK    2  A    between atoms: _3  and  _4
REMARK    3  A    between atoms: _3  and  _6
REMARK    4  A    between atoms: _6  and  _7
REMARK    5  A    between atoms: _10  and  _12
REMARK    6  A    between atoms: _12  and  _13
REMARK    7  A    between atoms: _12  and  _15
REMARK    8  A    between atoms: _19  and  _20
REMARK    9  A    between atoms: _25  and  _27
REMARK   10  A    between atoms: _27  and  _28
REMARK   11  A    between atoms: _27  and  _30
REMARK   12  A    between atoms: _30  and  _31
REMARK   13  A    between atoms: _34  and  _36
REMARK   14  A    between atoms: _36  and  _37
REMARK   15  A    between atoms: _36  and  _39
REMARK   16  A    between atoms: _39  and  _40
REMARK   17  A    between atoms: _40  and  _41
REMARK   18  A    between atoms: _43  and  _45
REMARK   19  A    between atoms: _45  and  _46
REMARK   20  A    between atoms: _48  and  _50
REMARK   21  A    between atoms: _50  and  _51
REMARK   22  A    between atoms: _54  and  _56
REMARK   23  A    between atoms: _56  and  _57
REMARK   24  A    between atoms: _56  and  _59
REMARK   25  A    between atoms: _59  and  _60
REMARK   26  A    between atoms: _63  and  _65
REMARK   27  A    between atoms: _65  and  _66
REMARK   28  A    between atoms: _65  and  _68
REMARK   29  A    between atoms: _68  and  _69
REMARK   30  A    between atoms: _74  and  _76
REMARK   31  A    between atoms: _76  and  _77
REMARK   32  A    between atoms: _76  and  _79
REMARK   33  A    between atoms: _79  and  _80
REMARK   34  A    between atoms: _80  and  _81
REMARK   35  A    between atoms: _84  and  _86
REMARK   36  A    between atoms: _86  and  _87
REMARK   37  A    between atoms: _89  and  _91
REMARK   38  A    between atoms: _91  and  _92
REMARK   39  A    between atoms: _91  and  _94
REMARK   40  A    between atoms: _94  and  _95
REMARK   41  A    between atoms: _100  and  _102
REMARK   42  A    between atoms: _102  and  _103
REMARK   43  A    between atoms: _102  and  _105
REMARK   44  A    between atoms: _105  and  _106
REMARK   45  A    between atoms: _109  and  _111
REMARK   46  A    between atoms: _111  and  _112
REMARK   47  A    between atoms: _115  and  _117
REMARK   48  A    between atoms: _117  and  _118
REMARK   49  A    between atoms: _117  and  _120
REMARK   50  A    between atoms: _120  and  _121
REMARK   51  A    between atoms: _124  and  _126
REMARK   52  A    between atoms: _126  and  _127
REMARK   53  A    between atoms: _126  and  _129
REMARK   54  A    between atoms: _132  and  _134
REMARK   55  A    between atoms: _134  and  _135
REMARK   56  A    between atoms: _138  and  _140
REMARK   57  A    between atoms: _140  and  _141
REMARK   58  A    between atoms: _140  and  _143
REMARK   59  A    between atoms: _143  and  _144
REMARK   60  A    between atoms: _146  and  _148
REMARK   61  A    between atoms: _148  and  _149
REMARK   62  A    between atoms: _148  and  _151
REMARK   63  A    between atoms: _151  and  _152
REMARK   64  A    between atoms: _155  and  _157
REMARK   65  A    between atoms: _157  and  _158
REMARK   66  A    between atoms: _157  and  _160
REMARK   67  A    between atoms: _160  and  _161
REMARK   68  A    between atoms: _167  and  _169
REMARK   69  A    between atoms: _169  and  _170
REMARK   70  A    between atoms: _169  and  _172
REMARK   71  A    between atoms: _175  and  _177
REMARK   72  A    between atoms: _177  and  _178
REMARK   73  A    between atoms: _177  and  _180
REMARK   74  A    between atoms: _180  and  _181
REMARK   75  A    between atoms: _186  and  _188
REMARK   76  A    between atoms: _188  and  _189
REMARK   77  A    between atoms: _188  and  _191
REMARK   78  A    between atoms: _191  and  _192
REMARK   79  A    between atoms: _192  and  _193
REMARK   80  A    between atoms: _198  and  _200
REMARK   81  A    between atoms: _200  and  _201
REMARK   82  A    between atoms: _200  and  _203
REMARK   83  A    between atoms: _203  and  _204
REMARK   84  A    between atoms: _209  and  _210
REMARK   85  A    between atoms: _213  and  _214
REMARK   86  A    between atoms: _219  and  _221
REMARK   87  A    between atoms: _221  and  _222
REMARK   88  A    between atoms: _224  and  _226
REMARK   89  A    between atoms: _226  and  _227
REMARK   90  A    between atoms: _226  and  _229
REMARK   91  A    between atoms: _232  and  _234
REMARK   92  A    between atoms: _234  and  _235
REMARK   93  A    between atoms: _234  and  _237
REMARK   94  A    between atoms: _237  and  _238
REMARK   95  A    between atoms: _241  and  _243
REMARK   96  A    between atoms: _243  and  _244
REMARK   97  A    between atoms: _243  and  _246
REMARK   98  A    between atoms: _249  and  _251
REMARK   99  A    between atoms: _251  and  _252
REMARK  100  A    between atoms: _251  and  _254
REMARK  101  A    between atoms: _257  and  _259
REMARK  102  A    between atoms: _259  and  _260
REMARK  103  A    between atoms: _259  and  _262
REMARK  104  A    between atoms: _262  and  _263
REMARK  105  A    between atoms: _266  and  _268
REMARK  106  A    between atoms: _268  and  _269
REMARK  107  A    between atoms: _268  and  _271
REMARK  108  A    between atoms: _271  and  _272
REMARK  109  A    between atoms: _275  and  _277
REMARK  110  A    between atoms: _277  and  _278
REMARK  111  A    between atoms: _277  and  _280
REMARK  112  A    between atoms: _283  and  _285
REMARK  113  A    between atoms: _285  and  _286
REMARK  114  A    between atoms: _285  and  _288
REMARK  115  A    between atoms: _288  and  _289
REMARK  116  A    between atoms: _295  and  _297
REMARK  117  A    between atoms: _297  and  _298
REMARK  118  A    between atoms: _297  and  _300
REMARK  119  A    between atoms: _300  and  _301
REMARK  120  A    between atoms: _307  and  _309
REMARK  121  A    between atoms: _309  and  _310
REMARK  122  A    between atoms: _312  and  _314
REMARK  123  A    between atoms: _314  and  _315
REMARK  124  A    between atoms: _314  and  _317
REMARK  125  A    between atoms: _317  and  _318
REMARK  126  A    between atoms: _318  and  _319
REMARK  127  A    between atoms: _322  and  _324
REMARK  128  A    between atoms: _324  and  _325
REMARK  129  A    between atoms: _324  and  _327
REMARK  130  A    between atoms: _327  and  _328
REMARK  131  A    between atoms: _328  and  _329
REMARK  132  A    between atoms: _329  and  _330
REMARK  133  A    between atoms: _330  and  _331
REMARK  134  A    between atoms: _335  and  _337
REMARK  135  A    between atoms: _337  and  _338
REMARK  136  A    between atoms: _337  and  _340
REMARK  137  A    between atoms: _340  and  _341
REMARK  138  A    between atoms: _344  and  _346
REMARK  139  A    between atoms: _346  and  _347
REMARK  140  A    between atoms: _346  and  _349
REMARK  141  A    between atoms: _349  and  _350
REMARK  142  A    between atoms: _350  and  _351
REMARK  143  A    between atoms: _356  and  _358
REMARK  144  A    between atoms: _358  and  _359
REMARK  145  A    between atoms: _358  and  _361
REMARK  146  A    between atoms: _361  and  _362
REMARK  147  A    between atoms: _365  and  _367
REMARK  148  A    between atoms: _367  and  _368
REMARK  149  A    between atoms: _367  and  _370
REMARK  150  A    between atoms: _370  and  _371
REMARK  151  A    between atoms: _374  and  _376
REMARK  152  A    between atoms: _376  and  _377
REMARK  153  A    between atoms: _379  and  _381
REMARK  154  A    between atoms: _381  and  _382
REMARK  155  A    between atoms: _381  and  _384
REMARK  156  A    between atoms: _388  and  _389
REMARK  157  A    between atoms: _394  and  _396
REMARK  158  A    between atoms: _396  and  _397
REMARK  159  A    between atoms: _396  and  _399
REMARK  160  A    between atoms: _399  and  _400
REMARK  161  A    between atoms: _403  and  _405
REMARK  162  A    between atoms: _405  and  _406
REMARK  163  A    between atoms: _405  and  _408
REMARK  164  A    between atoms: _411  and  _413
REMARK  165  A    between atoms: _413  and  _414
REMARK  166  A    between atoms: _413  and  _416
REMARK  167  A    between atoms: _416  and  _417
REMARK  168  A    between atoms: _417  and  _418
REMARK  169  A    between atoms: _418  and  _419
REMARK  170  A    between atoms: _428  and  _430
REMARK  171  A    between atoms: _430  and  _431
REMARK  172  A    between atoms: _430  and  _433
REMARK  173  A    between atoms: _433  and  _434
REMARK  174  A    between atoms: _437  and  _439
REMARK  175  A    between atoms: _439  and  _440
REMARK  176  A    between atoms: _443  and  _445
REMARK  177  A    between atoms: _445  and  _446
REMARK  178  A    between atoms: _445  and  _448
REMARK  179  A    between atoms: _448  and  _449
REMARK  180  A    between atoms: _449  and  _450
REMARK  181  A    between atoms: _452  and  _454
REMARK  182  A    between atoms: _454  and  _455
REMARK  183  A    between atoms: _454  and  _457
REMARK  184  A    between atoms: _457  and  _458
REMARK  185  A    between atoms: _460  and  _462
REMARK  186  A    between atoms: _462  and  _463
REMARK  187  A    between atoms: _462  and  _465
REMARK  188  A    between atoms: _465  and  _466
REMARK  189  A    between atoms: _468  and  _470
REMARK  190  A    between atoms: _470  and  _471
REMARK  191  A    between atoms: _470  and  _473
REMARK  192  A    between atoms: _473  and  _474
REMARK  193  A    between atoms: _474  and  _475
REMARK  194  A    between atoms: _475  and  _476
REMARK  195  A    between atoms: _485  and  _487
REMARK  196  A    between atoms: _487  and  _488
REMARK  197  A    between atoms: _487  and  _490
REMARK  198  A    between atoms: _490  and  _491
REMARK  199  A    between atoms: _496  and  _498
REMARK  200  A    between atoms: _498  and  _499
REMARK  201  A    between atoms: _498  and  _501
REMARK  202  A    between atoms: _501  and  _502
REMARK  203  A    between atoms: _502  and  _503
REMARK  204  A    between atoms: _503  and  _504
REMARK  205  A    between atoms: _513  and  _515
REMARK  206  A    between atoms: _515  and  _516
REMARK  207  A    between atoms: _515  and  _518
REMARK  208  A    between atoms: _518  and  _519
REMARK  209  A    between atoms: _519  and  _520
REMARK  210  A    between atoms: _520  and  _521
REMARK  211  A    between atoms: _530  and  _532
REMARK  212  A    between atoms: _532  and  _533
REMARK  213  A    between atoms: _532  and  _535
REMARK  214  A    between atoms: _535  and  _536
REMARK  215  A    between atoms: _539  and  _541
REMARK  216  A    between atoms: _541  and  _542
REMARK  217  A    between atoms: _541  and  _544
REMARK  218  A    between atoms: _544  and  _545
REMARK  219  A    between atoms: _548  and  _550
REMARK  220  A    between atoms: _550  and  _551
REMARK  221  A    between atoms: _550  and  _553
REMARK  222  A    between atoms: _553  and  _554
REMARK                            x       y       z     vdW  Elec       q    Type
REMARK                         _______ _______ _______ _____ _____    ______ ____
ROOT
ATOM      1  CA  GLY A   4      11.639   6.697  -1.819  0.00  0.00    +0.176 C 
ENDROOT
BRANCH   1   2
ATOM      2  C   GLY A   4      12.249   5.327  -1.909  0.00  0.00    +0.243 C 
ATOM      3  O   GLY A   4      12.730   4.802  -0.928  0.00  0.00    -0.273 OA
ATOM      4  N   GLU A   5      12.237   4.754  -3.111  0.00  0.00    -0.297 N 
ATOM      5  H   GLU A   5      11.721   5.216  -3.886  0.00  0.00    +0.150 HD
BRANCH   4   6
ATOM      6  CA  GLU A   5      12.928   3.496  -3.370  0.00  0.00    +0.149 C 
BRANCH   6   7
ATOM      7  C   GLU A   5      14.457   3.584  -3.439  0.00  0.00    +0.241 C 
ATOM      8  O   GLU A   5      15.111   2.540  -3.447  0.00  0.00    -0.273 OA
ATOM      9  N   LYS A   6      15.022   4.803  -3.493  0.00  0.00    -0.297 N 
ATOM     10  H   LYS A   6      14.416   5.646  -3.438  0.00  0.00    +0.150 HD
BRANCH   9  11
ATOM     11  CA  LYS A   6      16.450   4.970  -3.626  0.00  0.00    +0.149 C 
BRANCH  11  12
ATOM     12  C   LYS A   6      17.198   4.251  -2.483  0.00  0.00    +0.241 C 
ATOM     13  N   ASP A   7      16.762   4.518  -1.259  0.00  0.00    -0.298 N 
ATOM     14  H   ASP A   7      16.036   5.251  -1.126  0.00  0.00    +0.150 HD
ATOM     15  O   LYS A   6      18.126   3.472  -2.708  0.00  0.00    -0.273 OA
BRANCH  13  16
ATOM     16  CA  ASP A   7      17.276   3.809  -0.102  0.00  0.00    +0.148 C 
BRANCH  16  17
ATOM     17  C   ASP A   7      16.410   2.589   0.108  0.00  0.00    +0.227 C 
ATOM     18  O   ASP A   7      15.547   2.550   1.007  0.00  0.00    -0.286 OA
ENDBRANCH  16  17
BRANCH  16  19
ATOM     19  CB  ASP A   7      17.301   4.713   1.122  0.00  0.00    +0.142 C 
BRANCH  19  20
ATOM     20  CG  ASP A   7      18.184   5.919   0.905  0.00  0.00    +0.367 C 
ATOM     21  OD2 ASP A   7      19.419   5.780   0.965  0.00  0.00    -0.246 OA
ATOM     22  OD1 ASP A   7      17.637   6.994   0.590  0.00  0.00    -0.246 OA
ENDBRANCH  19  20
ENDBRANCH  16  19
ENDBRANCH  13  16
ENDBRANCH  11  12
BRANCH  11  23
ATOM     23  CB  LYS A   6      16.883   6.441  -3.727  0.00  0.00    +0.029 C 
BRANCH  23  24
ATOM     24  CG  LYS A   6      18.317   6.498  -4.249  0.00  0.00    +0.000 C 
BRANCH  24  25
ATOM     25  CD  LYS A   6      18.967   7.821  -3.986  0.00  0.00    -0.024 C 
BRANCH  25  26
ATOM     26  CE  LYS A   6      20.393   7.596  -3.656  0.00  0.00    -0.086 C 
BRANCH  26  27
ATOM     27  NZ  LYS A   6      20.418   6.943  -2.318  0.00  0.00    +0.380 N 
ATOM     28  HZ1 LYS A   6      19.968   7.569  -1.620  0.00  0.00    -0.089 HD
ATOM     29  HZ2 LYS A   6      21.404   6.763  -2.040  0.00  0.00    -0.089 HD
ATOM     30  HZ3 LYS A   6      19.899   6.043  -2.363  0.00  0.00    -0.089 HD
ENDBRANCH  26  27
ENDBRANCH  25  26
ENDBRANCH  24  25
ENDBRANCH  23  24
ENDBRANCH  11  23
ENDBRANCH   9  11
ENDBRANCH   6   7
BRANCH   6  31
ATOM     31  CB  GLU A   5      12.396   2.885  -4.658  0.00  0.00    +0.041 C 
BRANCH  31  32
ATOM     32  CG  GLU A   5      10.958   2.420  -4.538  0.00  0.00    +0.116 C 
BRANCH  32  33
ATOM     33  CD  GLU A   5      10.490   1.701  -5.797  0.00  0.00    +0.365 C 
ATOM     34  OE2 GLU A   5       9.361   1.170  -5.776  0.00  0.00    -0.246 OA
ATOM     35  OE1 GLU A   5      11.252   1.674  -6.787  0.00  0.00    -0.246 OA
ENDBRANCH  32  33
ENDBRANCH  31  32
ENDBRANCH   6  31
ENDBRANCH   4   6
ENDBRANCH   1   2
BRANCH   1  37
ATOM     36  C   PHE A   3       9.906   6.430  -0.135  0.00  0.00    +0.241 C 
ATOM     37  N   GLY A   4      11.084   6.951  -0.494  0.00  0.00    -0.295 N 
ATOM     38  H   GLY A   4      11.610   7.544   0.179  0.00  0.00    +0.150 HD
ATOM     39  O   PHE A   3       9.197   5.753  -0.909  0.00  0.00    -0.273 OA
BRANCH  36  40
ATOM     40  CA  PHE A   3       9.483   6.659   1.304  0.00  0.00    +0.153 C 
BRANCH  40  43
ATOM     41  C   PHE A   2       7.411   7.662   2.118  0.00  0.00    +0.241 C 
ATOM     42  O   PHE A   2       7.985   8.505   2.793  0.00  0.00    -0.273 OA
ATOM     43  N   PHE A   3       8.036   6.732   1.404  0.00  0.00    -0.297 N 
ATOM     44  H   PHE A   3       7.465   6.027   0.896  0.00  0.00    +0.150 HD
BRANCH  41  45
ATOM     45  CA  PHE A   2       5.891   7.652   2.061  0.00  0.00    +0.153 C 
BRANCH  45  47
ATOM     46  C   VAL A   1       4.578   6.663   3.861  0.00  0.00    +0.238 C 
ATOM     47  N   PHE A   2       5.298   7.694   3.399  0.00  0.00    -0.297 N 
ATOM     48  H   PHE A   2       5.437   8.533   3.997  0.00  0.00    +0.150 HD
ATOM     49  O   VAL A   1       4.525   5.548   3.297  0.00  0.00    -0.274 OA
BRANCH  46  50
ATOM     50  CA  VAL A   1       3.794   6.937   5.143  0.00  0.00    +0.145 C 
BRANCH  50  51
ATOM     51  CB  VAL A   1       4.539   6.475   6.407  0.00  0.00    +0.025 C 
ATOM     52  CG2 VAL A   1       5.787   7.352   6.689  0.00  0.00    +0.002 C 
ATOM     53  CG1 VAL A   1       4.852   4.961   6.349  0.00  0.00    +0.002 C 
ENDBRANCH  50  51
BRANCH  50  54
ATOM     54  N   VAL A   1       2.480   6.305   5.068  0.00  0.00    -0.238 NA
ATOM     55  H   VAL A   1       2.417   5.291   4.848  0.00  0.00    +0.142 HD
ENDBRANCH  50  54
ENDBRANCH  46  50
ENDBRANCH  45  47
BRANCH  45  56
ATOM     56  CB  PHE A   2       5.384   8.856   1.242  0.00  0.00    +0.055 C 
BRANCH  56  57
ATOM     57  CG  PHE A   2       3.926   8.768   0.958  0.00  0.00    -0.020 A 
ATOM     58  CD2 PHE A   2       2.997   9.111   1.950  0.00  0.00    -0.004 A 
ATOM     59  CE2 PHE A   2       1.625   8.970   1.712  0.00  0.00    -0.000 A 
ATOM     60  CZ  PHE A   2       1.177   8.502   0.465  0.00  0.00    -0.000 A 
ATOM     61  CE1 PHE A   2       2.084   8.166  -0.524  0.00  0.00    -0.000 A 
ATOM     62  CD1 PHE A   2       3.471   8.286  -0.269  0.00  0.00    -0.004 A 
ENDBRANCH  56  57
ENDBRANCH  45  56
ENDBRANCH  41  45
ENDBRANCH  40  43
BRANCH  40  63
ATOM     63  CB  PHE A   3      10.008   5.477   2.129  0.00  0.00    +0.055 C 
BRANCH  63  64
ATOM     64  CG  PHE A   3       9.815   5.641   3.601  0.00  0.00    -0.020 A 
ATOM     65  CD2 PHE A   3      10.716   6.381   4.357  0.00  0.00    -0.004 A 
ATOM     66  CE2 PHE A   3      10.522   6.539   5.728  0.00  0.00    -0.000 A 
ATOM     67  CZ  PHE A   3       9.437   5.931   6.338  0.00  0.00    -0.000 A 
ATOM     68  CE1 PHE A   3       8.570   5.175   5.584  0.00  0.00    -0.000 A 
ATOM     69  CD1 PHE A   3       8.745   5.041   4.241  0.00  0.00    -0.004 A 
ENDBRANCH  63  64
ENDBRANCH  40  63
ENDBRANCH  36  40
ENDBRANCH   1  37
TORSDOF 29
REMARK  Name = ../refined-set-2016/3ivx/3ivx_pocket.pdb
REMARK  222 active torsions:
REMARK  status: ('A' for Active; 'I' for Inactive)
REMARK    1  A    between atoms: _1  and  _3
REMARK    2  A    between atoms: _3  and  _4
REMARK    3  A    between atoms: _3  and  _6
REMARK    4  A    between atoms: _6  and  _7
REMARK    5  A    between atoms: _10  and  _12
REMARK    6  A    between atoms: _12  and  _13
REMARK    7  A    between atoms: _12  and  _15
REMARK    8  A    between atoms: _19  and  _20
REMARK    9  A    between atoms: _25  and  _27
REMARK   10  A    between atoms: _27  and  _28
REMARK   11  A    between atoms: _27  and  _30
REMARK   12  A    between atoms: _30  and  _31
REMARK   13  A    between atoms: _34  and  _36
REMARK   14  A    between atoms: _36  and  _37
REMARK   15  A    between atoms: _36  and  _39
REMARK   16  A    between atoms: _39  and  _40
REMARK   17  A    between atoms: _40  and  _41
REMARK   18  A    between atoms: _43  and  _45
REMARK   19  A    between atoms: _45  and  _46
REMARK   20  A    between atoms: _48  and  _50
REMARK   21  A    between atoms: _50  and  _51
REMARK   22  A    between atoms: _54  and  _56
REMARK   23  A    between atoms: _56  and  _57
REMARK   24  A    between atoms: _56  and  _59
REMARK   25  A    between atoms: _59  and  _60
REMARK   26  A    between atoms: _63  and  _65
REMARK   27  A    between atoms: _65  and  _66
REMARK   28  A    between atoms: _65  and  _68
REMARK   29  A    between atoms: _68  and  _69
REMARK   30  A    between atoms: _74  and  _76
REMARK   31  A    between atoms: _76  and  _77
REMARK   32  A    between atoms: _76  and  _79
REMARK   33  A    between atoms: _79  and  _80
REMARK   34  A    between atoms: _80  and  _81
REMARK   35  A    between atoms: _84  and  _86
REMARK   36  A    between atoms: _86  and  _87
REMARK   37  A    between atoms: _89  and  _91
REMARK   38  A    between atoms: _91  and  _92
REMARK   39  A    between atoms: _91  and  _94
REMARK   40  A    between atoms: _94  and  _95
REMARK   41  A    between atoms: _100  and  _102
REMARK   42  A    between atoms: _102  and  _103
REMARK   43  A    between atoms: _102  and  _105
REMARK   44  A    between atoms: _105  and  _106
REMARK   45  A    between atoms: _109  and  _111
REMARK   46  A    between atoms: _111  and  _112
REMARK   47  A    between atoms: _115  and  _117
REMARK   48  A    between atoms: _117  and  _118
REMARK   49  A    between atoms: _117  and  _120
REMARK   50  A    between atoms: _120  and  _121
REMARK   51  A    between atoms: _124  and  _126
REMARK   52  A    between atoms: _126  and  _127
REMARK   53  A    between atoms: _126  and  _129
REMARK   54  A    between atoms: _132  and  _134
REMARK   55  A    between atoms: _134  and  _135
REMARK   56  A    between atoms: _138  and  _140
REMARK   57  A    between atoms: _140  and  _141
REMARK   58  A    between atoms: _140  and  _143
REMARK   59  A    between atoms: _143  and  _144
REMARK   60  A    between atoms: _146  and  _148
REMARK   61  A    between atoms: _148  and  _149
REMARK   62  A    between atoms: _148  and  _151
REMARK   63  A    between atoms: _151  and  _152
REMARK   64  A    between atoms: _155  and  _157
REMARK   65  A    between atoms: _157  and  _158
REMARK   66  A    between atoms: _157  and  _160
REMARK   67  A    between atoms: _160  and  _161
REMARK   68  A    between atoms: _167  and  _169
REMARK   69  A    between atoms: _169  and  _170
REMARK   70  A    between atoms: _169  and  _172
REMARK   71  A    between atoms: _175  and  _177
REMARK   72  A    between atoms: _177  and  _178
REMARK   73  A    between atoms: _177  and  _180
REMARK   74  A    between atoms: _180  and  _181
REMARK   75  A    between atoms: _186  and  _188
REMARK   76  A    between atoms: _188  and  _189
REMARK   77  A    between atoms: _188  and  _191
REMARK   78  A    between atoms: _191  and  _192
REMARK   79  A    between atoms: _192  and  _193
REMARK   80  A    between atoms: _198  and  _200
REMARK   81  A    between atoms: _200  and  _201
REMARK   82  A    between atoms: _200  and  _203
REMARK   83  A    between atoms: _203  and  _204
REMARK   84  A    between atoms: _209  and  _210
REMARK   85  A    between atoms: _213  and  _214
REMARK   86  A    between atoms: _219  and  _221
REMARK   87  A    between atoms: _221  and  _222
REMARK   88  A    between atoms: _224  and  _226
REMARK   89  A    between atoms: _226  and  _227
REMARK   90  A    between atoms: _226  and  _229
REMARK   91  A    between atoms: _232  and  _234
REMARK   92  A    between atoms: _234  and  _235
REMARK   93  A    between atoms: _234  and  _237
REMARK   94  A    between atoms: _237  and  _238
REMARK   95  A    between atoms: _241  and  _243
REMARK   96  A    between atoms: _243  and  _244
REMARK   97  A    between atoms: _243  and  _246
REMARK   98  A    between atoms: _249  and  _251
REMARK   99  A    between atoms: _251  and  _252
REMARK  100  A    between atoms: _251  and  _254
REMARK  101  A    between atoms: _257  and  _259
REMARK  102  A    between atoms: _259  and  _260
REMARK  103  A    between atoms: _259  and  _262
REMARK  104  A    between atoms: _262  and  _263
REMARK  105  A    between atoms: _266  and  _268
REMARK  106  A    between atoms: _268  and  _269
REMARK  107  A    between atoms: _268  and  _271
REMARK  108  A    between atoms: _271  and  _272
REMARK  109  A    between atoms: _275  and  _277
REMARK  110  A    between atoms: _277  and  _278
REMARK  111  A    between atoms: _277  and  _280
REMARK  112  A    between atoms: _283  and  _285
REMARK  113  A    between atoms: _285  and  _286
REMARK  114  A    between atoms: _285  and  _288
REMARK  115  A    between atoms: _288  and  _289
REMARK  116  A    between atoms: _295  and  _297
REMARK  117  A    between atoms: _297  and  _298
REMARK  118  A    between atoms: _297  and  _300
REMARK  119  A    between atoms: _300  and  _301
REMARK  120  A    between atoms: _307  and  _309
REMARK  121  A    between atoms: _309  and  _310
REMARK  122  A    between atoms: _312  and  _314
REMARK  123  A    between atoms: _314  and  _315
REMARK  124  A    between atoms: _314  and  _317
REMARK  125  A    between atoms: _317  and  _318
REMARK  126  A    between atoms: _318  and  _319
REMARK  127  A    between atoms: _322  and  _324
REMARK  128  A    between atoms: _324  and  _325
REMARK  129  A    between atoms: _324  and  _327
REMARK  130  A    between atoms: _327  and  _328
REMARK  131  A    between atoms: _328  and  _329
REMARK  132  A    between atoms: _329  and  _330
REMARK  133  A    between atoms: _330  and  _331
REMARK  134  A    between atoms: _335  and  _337
REMARK  135  A    between atoms: _337  and  _338
REMARK  136  A    between atoms: _337  and  _340
REMARK  137  A    between atoms: _340  and  _341
REMARK  138  A    between atoms: _344  and  _346
REMARK  139  A    between atoms: _346  and  _347
REMARK  140  A    between atoms: _346  and  _349
REMARK  141  A    between atoms: _349  and  _350
REMARK  142  A    between atoms: _350  and  _351
REMARK  143  A    between atoms: _356  and  _358
REMARK  144  A    between atoms: _358  and  _359
REMARK  145  A    between atoms: _358  and  _361
REMARK  146  A    between atoms: _361  and  _362
REMARK  147  A    between atoms: _365  and  _367
REMARK  148  A    between atoms: _367  and  _368
REMARK  149  A    between atoms: _367  and  _370
REMARK  150  A    between atoms: _370  and  _371
REMARK  151  A    between atoms: _374  and  _376
REMARK  152  A    between atoms: _376  and  _377
REMARK  153  A    between atoms: _379  and  _381
REMARK  154  A    between atoms: _381  and  _382
REMARK  155  A    between atoms: _381  and  _384
REMARK  156  A    between atoms: _388  and  _389
REMARK  157  A    between atoms: _394  and  _396
REMARK  158  A    between atoms: _396  and  _397
REMARK  159  A    between atoms: _396  and  _399
REMARK  160  A    between atoms: _399  and  _400
REMARK  161  A    between atoms: _403  and  _405
REMARK  162  A    between atoms: _405  and  _406
REMARK  163  A    between atoms: _405  and  _408
REMARK  164  A    between atoms: _411  and  _413
REMARK  165  A    between atoms: _413  and  _414
REMARK  166  A    between atoms: _413  and  _416
REMARK  167  A    between atoms: _416  and  _417
REMARK  168  A    between atoms: _417  and  _418
REMARK  169  A    between atoms: _418  and  _419
REMARK  170  A    between atoms: _428  and  _430
REMARK  171  A    between atoms: _430  and  _431
REMARK  172  A    between atoms: _430  and  _433
REMARK  173  A    between atoms: _433  and  _434
REMARK  174  A    between atoms: _437  and  _439
REMARK  175  A    between atoms: _439  and  _440
REMARK  176  A    between atoms: _443  and  _445
REMARK  177  A    between atoms: _445  and  _446
REMARK  178  A    between atoms: _445  and  _448
REMARK  179  A    between atoms: _448  and  _449
REMARK  180  A    between atoms: _449  and  _450
REMARK  181  A    between atoms: _452  and  _454
REMARK  182  A    between atoms: _454  and  _455
REMARK  183  A    between atoms: _454  and  _457
REMARK  184  A    between atoms: _457  and  _458
REMARK  185  A    between atoms: _460  and  _462
REMARK  186  A    between atoms: _462  and  _463
REMARK  187  A    between atoms: _462  and  _465
REMARK  188  A    between atoms: _465  and  _466
REMARK  189  A    between atoms: _468  and  _470
REMARK  190  A    between atoms: _470  and  _471
REMARK  191  A    between atoms: _470  and  _473
REMARK  192  A    between atoms: _473  and  _474
REMARK  193  A    between atoms: _474  and  _475
REMARK  194  A    between atoms: _475  and  _476
REMARK  195  A    between atoms: _485  and  _487
REMARK  196  A    between atoms: _487  and  _488
REMARK  197  A    between atoms: _487  and  _490
REMARK  198  A    between atoms: _490  and  _491
REMARK  199  A    between atoms: _496  and  _498
REMARK  200  A    between atoms: _498  and  _499
REMARK  201  A    between atoms: _498  and  _501
REMARK  202  A    between atoms: _501  and  _502
REMARK  203  A    between atoms: _502  and  _503
REMARK  204  A    between atoms: _503  and  _504
REMARK  205  A    between atoms: _513  and  _515
REMARK  206  A    between atoms: _515  and  _516
REMARK  207  A    between atoms: _515  and  _518
REMARK  208  A    between atoms: _518  and  _519
REMARK  209  A    between atoms: _519  and  _520
REMARK  210  A    between atoms: _520  and  _521
REMARK  211  A    between atoms: _530  and  _532
REMARK  212  A    between atoms: _532  and  _533
REMARK  213  A    between atoms: _532  and  _535
REMARK  214  A    between atoms: _535  and  _536
REMARK  215  A    between atoms: _539  and  _541
REMARK  216  A    between atoms: _541  and  _542
REMARK  217  A    between atoms: _541  and  _544
REMARK  218  A    between atoms: _544  and  _545
REMARK  219  A    between atoms: _548  and  _550
REMARK  220  A    between atoms: _550  and  _551
REMARK  221  A    between atoms: _550  and  _553
REMARK  222  A    between atoms: _553  and  _554
REMARK                            x       y       z     vdW  Elec       q    Type
REMARK                         _______ _______ _______ _____ _____    ______ ____
ROOT
ATOM      1  C   GLN A   1      14.406   0.997   4.296  0.00  0.00    +0.238 C 
ATOM      2  O   GLN A   1      13.697   0.779   5.283  0.00  0.00    -0.274 OA
ATOM      3  N   LEU A   2      13.897   1.009   3.059  0.00  0.00    -0.298 N 
ATOM      4  H   LEU A   2      14.538   1.133   2.250  0.00  0.00    +0.150 HD
ENDROOT
BRANCH   1   5
ATOM      5  CA  GLN A   1      15.930   1.223   4.449  0.00  0.00    +0.145 C 
BRANCH   5   6
ATOM      6  N   GLN A   1      16.695   0.513   3.433  0.00  0.00    -0.238 NA
ATOM      7  H   GLN A   1      17.357   1.031   2.821  0.00  0.00    +0.142 HD
ENDBRANCH   5   6
BRANCH   5   8
ATOM      8  CB  GLN A   1      16.306   2.708   4.405  0.00  0.00    +0.036 C 
BRANCH   8   9
ATOM      9  CG  GLN A   1      15.410   3.610   5.249  0.00  0.00    +0.087 C 
BRANCH   9  10
ATOM     10  CD  GLN A   1      15.839   5.034   5.112  0.00  0.00    +0.219 C 
ATOM     11  OE1 GLN A   1      16.796   5.459   5.770  0.00  0.00    -0.275 OA
ATOM     12  NE2 GLN A   1      15.169   5.781   4.217  0.00  0.00    -0.329 N 
ATOM     13 HE21 GLN A   1      15.449   6.769   4.051  0.00  0.00    +0.145 HD
ATOM     14 HE22 GLN A   1      14.371   5.371   3.691  0.00  0.00    +0.145 HD
ENDBRANCH   9  10
ENDBRANCH   8   9
ENDBRANCH   5   8
ENDBRANCH   1   5
BRANCH   3  15
ATOM     15  CA  LEU A   2      12.474   0.854   2.815  0.00  0.00    +0.137 C 
BRANCH  15  16
ATOM     16  C   LEU A   2      12.003  -0.502   3.254  0.00  0.00    +0.227 C 
ATOM     17  O   LEU A   2      10.976  -0.610   3.921  0.00  0.00    -0.286 OA
ENDBRANCH  15  16
BRANCH  15  18
ATOM     18  CB  LEU A   2      12.128   1.119   1.328  0.00  0.00    +0.028 C 
BRANCH  18  19
ATOM     19  CG  LEU A   2      10.700   0.824   0.809  0.00  0.00    +0.002 C 
ATOM     20  CD2 LEU A   2       9.619   1.621   1.558  0.00  0.00    +0.000 C 
ATOM     21  CD1 LEU A   2      10.661   1.169  -0.677  0.00  0.00    +0.000 C 
ENDBRANCH  18  19
ENDBRANCH  15  18
ENDBRANCH   3  15
TORSDOF 9
REMARK  Name = ../refined-set-2016/3ivx/3ivx_pocket.pdb
REMARK  222 active torsions:
REMARK  status: ('A' for Active; 'I' for Inactive)
REMARK    1  A    between atoms: _1  and  _3
REMARK    2  A    between atoms: _3  and  _4
REMARK    3  A    between atoms: _3  and  _6
REMARK    4  A    between atoms: _6  and  _7
REMARK    5  A    between atoms: _10  and  _12
REMARK    6  A    between atoms: _12  and  _13
REMARK    7  A    between atoms: _12  and  _15
REMARK    8  A    between atoms: _19  and  _20
REMARK    9  A    between atoms: _25  and  _27
REMARK   10  A    between atoms: _27  and  _28
REMARK   11  A    between atoms: _27  and  _30
REMARK   12  A    between atoms: _30  and  _31
REMARK   13  A    between atoms: _34  and  _36
REMARK   14  A    between atoms: _36  and  _37
REMARK   15  A    between atoms: _36  and  _39
REMARK   16  A    between atoms: _39  and  _40
REMARK   17  A    between atoms: _40  and  _41
REMARK   18  A    between atoms: _43  and  _45
REMARK   19  A    between atoms: _45  and  _46
REMARK   20  A    between atoms: _48  and  _50
REMARK   21  A    between atoms: _50  and  _51
REMARK   22  A    between atoms: _54  and  _56
REMARK   23  A    between atoms: _56  and  _57
REMARK   24  A    between atoms: _56  and  _59
REMARK   25  A    between atoms: _59  and  _60
REMARK   26  A    between atoms: _63  and  _65
REMARK   27  A    between atoms: _65  and  _66
REMARK   28  A    between atoms: _65  and  _68
REMARK   29  A    between atoms: _68  and  _69
REMARK   30  A    between atoms: _74  and  _76
REMARK   31  A    between atoms: _76  and  _77
REMARK   32  A    between atoms: _76  and  _79
REMARK   33  A    between atoms: _79  and  _80
REMARK   34  A    between atoms: _80  and  _81
REMARK   35  A    between atoms: _84  and  _86
REMARK   36  A    between atoms: _86  and  _87
REMARK   37  A    between atoms: _89  and  _91
REMARK   38  A    between atoms: _91  and  _92
REMARK   39  A    between atoms: _91  and  _94
REMARK   40  A    between atoms: _94  and  _95
REMARK   41  A    between atoms: _100  and  _102
REMARK   42  A    between atoms: _102  and  _103
REMARK   43  A    between atoms: _102  and  _105
REMARK   44  A    between atoms: _105  and  _106
REMARK   45  A    between atoms: _109  and  _111
REMARK   46  A    between atoms: _111  and  _112
REMARK   47  A    between atoms: _115  and  _117
REMARK   48  A    between atoms: _117  and  _118
REMARK   49  A    between atoms: _117  and  _120
REMARK   50  A    between atoms: _120  and  _121
REMARK   51  A    between atoms: _124  and  _126
REMARK   52  A    between atoms: _126  and  _127
REMARK   53  A    between atoms: _126  and  _129
REMARK   54  A    between atoms: _132  and  _134
REMARK   55  A    between atoms: _134  and  _135
REMARK   56  A    between atoms: _138  and  _140
REMARK   57  A    between atoms: _140  and  _141
REMARK   58  A    between atoms: _140  and  _143
REMARK   59  A    between atoms: _143  and  _144
REMARK   60  A    between atoms: _146  and  _148
REMARK   61  A    between atoms: _148  and  _149
REMARK   62  A    between atoms: _148  and  _151
REMARK   63  A    between atoms: _151  and  _152
REMARK   64  A    between atoms: _155  and  _157
REMARK   65  A    between atoms: _157  and  _158
REMARK   66  A    between atoms: _157  and  _160
REMARK   67  A    between atoms: _160  and  _161
REMARK   68  A    between atoms: _167  and  _169
REMARK   69  A    between atoms: _169  and  _170
REMARK   70  A    between atoms: _169  and  _172
REMARK   71  A    between atoms: _175  and  _177
REMARK   72  A    between atoms: _177  and  _178
REMARK   73  A    between atoms: _177  and  _180
REMARK   74  A    between atoms: _180  and  _181
REMARK   75  A    between atoms: _186  and  _188
REMARK   76  A    between atoms: _188  and  _189
REMARK   77  A    between atoms: _188  and  _191
REMARK   78  A    between atoms: _191  and  _192
REMARK   79  A    between atoms: _192  and  _193
REMARK   80  A    between atoms: _198  and  _200
REMARK   81  A    between atoms: _200  and  _201
REMARK   82  A    between atoms: _200  and  _203
REMARK   83  A    between atoms: _203  and  _204
REMARK   84  A    between atoms: _209  and  _210
REMARK   85  A    between atoms: _213  and  _214
REMARK   86  A    between atoms: _219  and  _221
REMARK   87  A    between atoms: _221  and  _222
REMARK   88  A    between atoms: _224  and  _226
REMARK   89  A    between atoms: _226  and  _227
REMARK   90  A    between atoms: _226  and  _229
REMARK   91  A    between atoms: _232  and  _234
REMARK   92  A    between atoms: _234  and  _235
REMARK   93  A    between atoms: _234  and  _237
REMARK   94  A    between atoms: _237  and  _238
REMARK   95  A    between atoms: _241  and  _243
REMARK   96  A    between atoms: _243  and  _244
REMARK   97  A    between atoms: _243  and  _246
REMARK   98  A    between atoms: _249  and  _251
REMARK   99  A    between atoms: _251  and  _252
REMARK  100  A    between atoms: _251  and  _254
REMARK  101  A    between atoms: _257  and  _259
REMARK  102  A    between atoms: _259  and  _260
REMARK  103  A    between atoms: _259  and  _262
REMARK  104  A    between atoms: _262  and  _263
REMARK  105  A    between atoms: _266  and  _268
REMARK  106  A    between atoms: _268  and  _269
REMARK  107  A    between atoms: _268  and  _271
REMARK  108  A    between atoms: _271  and  _272
REMARK  109  A    between atoms: _275  and  _277
REMARK  110  A    between atoms: _277  and  _278
REMARK  111  A    between atoms: _277  and  _280
REMARK  112  A    between atoms: _283  and  _285
REMARK  113  A    between atoms: _285  and  _286
REMARK  114  A    between atoms: _285  and  _288
REMARK  115  A    between atoms: _288  and  _289
REMARK  116  A    between atoms: _295  and  _297
REMARK  117  A    between atoms: _297  and  _298
REMARK  118  A    between atoms: _297  and  _300
REMARK  119  A    between atoms: _300  and  _301
REMARK  120  A    between atoms: _307  and  _309
REMARK  121  A    between atoms: _309  and  _310
REMARK  122  A    between atoms: _312  and  _314
REMARK  123  A    between atoms: _314  and  _315
REMARK  124  A    between atoms: _314  and  _317
REMARK  125  A    between atoms: _317  and  _318
REMARK  126  A    between atoms: _318  and  _319
REMARK  127  A    between atoms: _322  and  _324
REMARK  128  A    between atoms: _324  and  _325
REMARK  129  A    between atoms: _324  and  _327
REMARK  130  A    between atoms: _327  and  _328
REMARK  131  A    between atoms: _328  and  _329
REMARK  132  A    between atoms: _329  and  _330
REMARK  133  A    between atoms: _330  and  _331
REMARK  134  A    between atoms: _335  and  _337
REMARK  135  A    between atoms: _337  and  _338
REMARK  136  A    between atoms: _337  and  _340
REMARK  137  A    between atoms: _340  and  _341
REMARK  138  A    between atoms: _344  and  _346
REMARK  139  A    between atoms: _346  and  _347
REMARK  140  A    between atoms: _346  and  _349
REMARK  141  A    between atoms: _349  and  _350
REMARK  142  A    between atoms: _350  and  _351
REMARK  143  A    between atoms: _356  and  _358
REMARK  144  A    between atoms: _358  and  _359
REMARK  145  A    between atoms: _358  and  _361
REMARK  146  A    between atoms: _361  and  _362
REMARK  147  A    between atoms: _365  and  _367
REMARK  148  A    between atoms: _367  and  _368
REMARK  149  A    between atoms: _367  and  _370
REMARK  150  A    between atoms: _370  and  _371
REMARK  151  A    between atoms: _374  and  _376
REMARK  152  A    between atoms: _376  and  _377
REMARK  153  A    between atoms: _379  and  _381
REMARK  154  A    between atoms: _381  and  _382
REMARK  155  A    between atoms: _381  and  _384
REMARK  156  A    between atoms: _388  and  _389
REMARK  157  A    between atoms: _394  and  _396
REMARK  158  A    between atoms: _396  and  _397
REMARK  159  A    between atoms: _396  and  _399
REMARK  160  A    between atoms: _399  and  _400
REMARK  161  A    between atoms: _403  and  _405
REMARK  162  A    between atoms: _405  and  _406
REMARK  163  A    between atoms: _405  and  _408
REMARK  164  A    between atoms: _411  and  _413
REMARK  165  A    between atoms: _413  and  _414
REMARK  166  A    between atoms: _413  and  _416
REMARK  167  A    between atoms: _416  and  _417
REMARK  168  A    between atoms: _417  and  _418
REMARK  169  A    between atoms: _418  and  _419
REMARK  170  A    between atoms: _428  and  _430
REMARK  171  A    between atoms: _430  and  _431
REMARK  172  A    between atoms: _430  and  _433
REMARK  173  A    between atoms: _433  and  _434
REMARK  174  A    between atoms: _437  and  _439
REMARK  175  A    between atoms: _439  and  _440
REMARK  176  A    between atoms: _443  and  _445
REMARK  177  A    between atoms: _445  and  _446
REMARK  178  A    between atoms: _445  and  _448
REMARK  179  A    between atoms: _448  and  _449
REMARK  180  A    between atoms: _449  and  _450
REMARK  181  A    between atoms: _452  and  _454
REMARK  182  A    between atoms: _454  and  _455
REMARK  183  A    between atoms: _454  and  _457
REMARK  184  A    between atoms: _457  and  _458
REMARK  185  A    between atoms: _460  and  _462
REMARK  186  A    between atoms: _462  and  _463
REMARK  187  A    between atoms: _462  and  _465
REMARK  188  A    between atoms: _465  and  _466
REMARK  189  A    between atoms: _468  and  _470
REMARK  190  A    between atoms: _470  and  _471
REMARK  191  A    between atoms: _470  and  _473
REMARK  192  A    between atoms: _473  and  _474
REMARK  193  A    between atoms: _474  and  _475
REMARK  194  A    between atoms: _475  and  _476
REMARK  195  A    between atoms: _485  and  _487
REMARK  196  A    between atoms: _487  and  _488
REMARK  197  A    between atoms: _487  and  _490
REMARK  198  A    between atoms: _490  and  _491
REMARK  199  A    between atoms: _496  and  _498
REMARK  200  A    between atoms: _498  and  _499
REMARK  201  A    between atoms: _498  and  _501
REMARK  202  A    between atoms: _501  and  _502
REMARK  203  A    between atoms: _502  and  _503
REMARK  204  A    between atoms: _503  and  _504
REMARK  205  A    between atoms: _513  and  _515
REMARK  206  A    between atoms: _515  and  _516
REMARK  207  A    between atoms: _515  and  _518
REMARK  208  A    between atoms: _518  and  _519
REMARK  209  A    between atoms: _519  and  _520
REMARK  210  A    between atoms: _520  and  _521
REMARK  211  A    between atoms: _530  and  _532
REMARK  212  A    between atoms: _532  and  _533
REMARK  213  A    between atoms: _532  and  _535
REMARK  214  A    between atoms: _535  and  _536
REMARK  215  A    between atoms: _539  and  _541
REMARK  216  A    between atoms: _541  and  _542
REMARK  217  A    between atoms: _541  and  _544
REMARK  218  A    between atoms: _544  and  _545
REMARK  219  A    between atoms: _548  and  _550
REMARK  220  A    between atoms: _550  and  _551
REMARK  221  A    between atoms: _550  and  _553
REMARK  222  A    between atoms: _553  and  _554
REMARK                            x       y       z     vdW  Elec       q    Type
REMARK                         _______ _______ _______ _____ _____    ______ ____
ROOT
ATOM      1  CA  ILE A   1      10.714  -0.040   7.463  0.00  0.00    +0.133 C 
ENDROOT
BRANCH   1   2
ATOM      2  N   ILE A   1      11.869  -0.754   6.937  0.00  0.00    -0.239 NA
ATOM      3  H   ILE A   1      12.358  -0.407   6.087  0.00  0.00    +0.142 HD
ENDBRANCH   1   2
BRANCH   1   4
ATOM      4  C   ILE A   1       9.437  -0.866   7.299  0.00  0.00    +0.224 C 
ATOM      5  O   ILE A   1       8.576  -0.889   8.181  0.00  0.00    -0.287 OA
ENDBRANCH   1   4
BRANCH   1   6
ATOM      6  CB  ILE A   1      10.592   1.371   6.853  0.00  0.00    +0.023 C 
ATOM      7  CG2 ILE A   1       9.184   1.927   7.191  0.00  0.00    +0.002 C 
BRANCH   6   8
ATOM      8  CG1 ILE A   1      11.683   2.270   7.429  0.00  0.00    +0.002 C 
ATOM      9  CD1 ILE A   1      11.976   3.489   6.616  0.00  0.00    +0.000 C 
ENDBRANCH   6   8
ENDBRANCH   1   6
TORSDOF 4
REMARK  Name = ../refined-set-2016/3ivx/3ivx_pocket.pdb
REMARK  222 active torsions:
REMARK  status: ('A' for Active; 'I' for Inactive)
REMARK    1  A    between atoms: _1  and  _3
REMARK    2  A    between atoms: _3  and  _4
REMARK    3  A    between atoms: _3  and  _6
REMARK    4  A    between atoms: _6  and  _7
REMARK    5  A    between atoms: _10  and  _12
REMARK    6  A    between atoms: _12  and  _13
REMARK    7  A    between atoms: _12  and  _15
REMARK    8  A    between atoms: _19  and  _20
REMARK    9  A    between atoms: _25  and  _27
REMARK   10  A    between atoms: _27  and  _28
REMARK   11  A    between atoms: _27  and  _30
REMARK   12  A    between atoms: _30  and  _31
REMARK   13  A    between atoms: _34  and  _36
REMARK   14  A    between atoms: _36  and  _37
REMARK   15  A    between atoms: _36  and  _39
REMARK   16  A    between atoms: _39  and  _40
REMARK   17  A    between atoms: _40  and  _41
REMARK   18  A    between atoms: _43  and  _45
REMARK   19  A    between atoms: _45  and  _46
REMARK   20  A    between atoms: _48  and  _50
REMARK   21  A    between atoms: _50  and  _51
REMARK   22  A    between atoms: _54  and  _56
REMARK   23  A    between atoms: _56  and  _57
REMARK   24  A    between atoms: _56  and  _59
REMARK   25  A    between atoms: _59  and  _60
REMARK   26  A    between atoms: _63  and  _65
REMARK   27  A    between atoms: _65  and  _66
REMARK   28  A    between atoms: _65  and  _68
REMARK   29  A    between atoms: _68  and  _69
REMARK   30  A    between atoms: _74  and  _76
REMARK   31  A    between atoms: _76  and  _77
REMARK   32  A    between atoms: _76  and  _79
REMARK   33  A    between atoms: _79  and  _80
REMARK   34  A    between atoms: _80  and  _81
REMARK   35  A    between atoms: _84  and  _86
REMARK   36  A    between atoms: _86  and  _87
REMARK   37  A    between atoms: _89  and  _91
REMARK   38  A    between atoms: _91  and  _92
REMARK   39  A    between atoms: _91  and  _94
REMARK   40  A    between atoms: _94  and  _95
REMARK   41  A    between atoms: _100  and  _102
REMARK   42  A    between atoms: _102  and  _103
REMARK   43  A    between atoms: _102  and  _105
REMARK   44  A    between atoms: _105  and  _106
REMARK   45  A    between atoms: _109  and  _111
REMARK   46  A    between atoms: _111  and  _112
REMARK   47  A    between atoms: _115  and  _117
REMARK   48  A    between atoms: _117  and  _118
REMARK   49  A    between atoms: _117  and  _120
REMARK   50  A    between atoms: _120  and  _121
REMARK   51  A    between atoms: _124  and  _126
REMARK   52  A    between atoms: _126  and  _127
REMARK   53  A    between atoms: _126  and  _129
REMARK   54  A    between atoms: _132  and  _134
REMARK   55  A    between atoms: _134  and  _135
REMARK   56  A    between atoms: _138  and  _140
REMARK   57  A    between atoms: _140  and  _141
REMARK   58  A    between atoms: _140  and  _143
REMARK   59  A    between atoms: _143  and  _144
REMARK   60  A    between atoms: _146  and  _148
REMARK   61  A    between atoms: _148  and  _149
REMARK   62  A    between atoms: _148  and  _151
REMARK   63  A    between atoms: _151  and  _152
REMARK   64  A    between atoms: _155  and  _157
REMARK   65  A    between atoms: _157  and  _158
REMARK   66  A    between atoms: _157  and  _160
REMARK   67  A    between atoms: _160  and  _161
REMARK   68  A    between atoms: _167  and  _169
REMARK   69  A    between atoms: _169  and  _170
REMARK   70  A    between atoms: _169  and  _172
REMARK   71  A    between atoms: _175  and  _177
REMARK   72  A    between atoms: _177  and  _178
REMARK   73  A    between atoms: _177  and  _180
REMARK   74  A    between atoms: _180  and  _181
REMARK   75  A    between atoms: _186  and  _188
REMARK   76  A    between atoms: _188  and  _189
REMARK   77  A    between atoms: _188  and  _191
REMARK   78  A    between atoms: _191  and  _192
REMARK   79  A    between atoms: _192  and  _193
REMARK   80  A    between atoms: _198  and  _200
REMARK   81  A    between atoms: _200  and  _201
REMARK   82  A    between atoms: _200  and  _203
REMARK   83  A    between atoms: _203  and  _204
REMARK   84  A    between atoms: _209  and  _210
REMARK   85  A    between atoms: _213  and  _214
REMARK   86  A    between atoms: _219  and  _221
REMARK   87  A    between atoms: _221  and  _222
REMARK   88  A    between atoms: _224  and  _226
REMARK   89  A    between atoms: _226  and  _227
REMARK   90  A    between atoms: _226  and  _229
REMARK   91  A    between atoms: _232  and  _234
REMARK   92  A    between atoms: _234  and  _235
REMARK   93  A    between atoms: _234  and  _237
REMARK   94  A    between atoms: _237  and  _238
REMARK   95  A    between atoms: _241  and  _243
REMARK   96  A    between atoms: _243  and  _244
REMARK   97  A    between atoms: _243  and  _246
REMARK   98  A    between atoms: _249  and  _251
REMARK   99  A    between atoms: _251  and  _252
REMARK  100  A    between atoms: _251  and  _254
REMARK  101  A    between atoms: _257  and  _259
REMARK  102  A    between atoms: _259  and  _260
REMARK  103  A    between atoms: _259  and  _262
REMARK  104  A    between atoms: _262  and  _263
REMARK  105  A    between atoms: _266  and  _268
REMARK  106  A    between atoms: _268  and  _269
REMARK  107  A    between atoms: _268  and  _271
REMARK  108  A    between atoms: _271  and  _272
REMARK  109  A    between atoms: _275  and  _277
REMARK  110  A    between atoms: _277  and  _278
REMARK  111  A    between atoms: _277  and  _280
REMARK  112  A    between atoms: _283  and  _285
REMARK  113  A    between atoms: _285  and  _286
REMARK  114  A    between atoms: _285  and  _288
REMARK  115  A    between atoms: _288  and  _289
REMARK  116  A    between atoms: _295  and  _297
REMARK  117  A    between atoms: _297  and  _298
REMARK  118  A    between atoms: _297  and  _300
REMARK  119  A    between atoms: _300  and  _301
REMARK  120  A    between atoms: _307  and  _309
REMARK  121  A    between atoms: _309  and  _310
REMARK  122  A    between atoms: _312  and  _314
REMARK  123  A    between atoms: _314  and  _315
REMARK  124  A    between atoms: _314  and  _317
REMARK  125  A    between atoms: _317  and  _318
REMARK  126  A    between atoms: _318  and  _319
REMARK  127  A    between atoms: _322  and  _324
REMARK  128  A    between atoms: _324  and  _325
REMARK  129  A    between atoms: _324  and  _327
REMARK  130  A    between atoms: _327  and  _328
REMARK  131  A    between atoms: _328  and  _329
REMARK  132  A    between atoms: _329  and  _330
REMARK  133  A    between atoms: _330  and  _331
REMARK  134  A    between atoms: _335  and  _337
REMARK  135  A    between atoms: _337  and  _338
REMARK  136  A    between atoms: _337  and  _340
REMARK  137  A    between atoms: _340  and  _341
REMARK  138  A    between atoms: _344  and  _346
REMARK  139  A    between atoms: _346  and  _347
REMARK  140  A    between atoms: _346  and  _349
REMARK  141  A    between atoms: _349  and  _350
REMARK  142  A    between atoms: _350  and  _351
REMARK  143  A    between atoms: _356  and  _358
REMARK  144  A    between atoms: _358  and  _359
REMARK  145  A    between atoms: _358  and  _361
REMARK  146  A    between atoms: _361  and  _362
REMARK  147  A    between atoms: _365  and  _367
REMARK  148  A    between atoms: _367  and  _368
REMARK  149  A    between atoms: _367  and  _370
REMARK  150  A    between atoms: _370  and  _371
REMARK  151  A    between atoms: _374  and  _376
REMARK  152  A    between atoms: _376  and  _377
REMARK  153  A    between atoms: _379  and  _381
REMARK  154  A    between atoms: _381  and  _382
REMARK  155  A    between atoms: _381  and  _384
REMARK  156  A    between atoms: _388  and  _389
REMARK  157  A    between atoms: _394  and  _396
REMARK  158  A    between atoms: _396  and  _397
REMARK  159  A    between atoms: _396  and  _399
REMARK  160  A    between atoms: _399  and  _400
REMARK  161  A    between atoms: _403  and  _405
REMARK  162  A    between atoms: _405  and  _406
REMARK  163  A    between atoms: _405  and  _408
REMARK  164  A    between atoms: _411  and  _413
REMARK  165  A    between atoms: _413  and  _414
REMARK  166  A    between atoms: _413  and  _416
REMARK  167  A    between atoms: _416  and  _417
REMARK  168  A    between atoms: _417  and  _418
REMARK  169  A    between atoms: _418  and  _419
REMARK  170  A    between atoms: _428  and  _430
REMARK  171  A    between atoms: _430  and  _431
REMARK  172  A    between atoms: _430  and  _433
REMARK  173  A    between atoms: _433  and  _434
REMARK  174  A    between atoms: _437  and  _439
REMARK  175  A    between atoms: _439  and  _440
REMARK  176  A    between atoms: _443  and  _445
REMARK  177  A    between atoms: _445  and  _446
REMARK  178  A    between atoms: _445  and  _448
REMARK  179  A    between atoms: _448  and  _449
REMARK  180  A    between atoms: _449  and  _450
REMARK  181  A    between atoms: _452  and  _454
REMARK  182  A    between atoms: _454  and  _455
REMARK  183  A    between atoms: _454  and  _457
REMARK  184  A    between atoms: _457  and  _458
REMARK  185  A    between atoms: _460  and  _462
REMARK  186  A    between atoms: _462  and  _463
REMARK  187  A    between atoms: _462  and  _465
REMARK  188  A    between atoms: _465  and  _466
REMARK  189  A    between atoms: _468  and  _470
REMARK  190  A    between atoms: _470  and  _471
REMARK  191  A    between atoms: _470  and  _473
REMARK  192  A    between atoms: _473  and  _474
REMARK  193  A    between atoms: _474  and  _475
REMARK  194  A    between atoms: _475  and  _476
REMARK  195  A    between atoms: _485  and  _487
REMARK  196  A    between atoms: _487  and  _488
REMARK  197  A    between atoms: _487  and  _490
REMARK  198  A    between atoms: _490  and  _491
REMARK  199  A    between atoms: _496  and  _498
REMARK  200  A    between atoms: _498  and  _499
REMARK  201  A    between atoms: _498  and  _501
REMARK  202  A    between atoms: _501  and  _502
REMARK  203  A    between atoms: _502  and  _503
REMARK  204  A    between atoms: _503  and  _504
REMARK  205  A    between atoms: _513  and  _515
REMARK  206  A    between atoms: _515  and  _516
REMARK  207  A    between atoms: _515  and  _518
REMARK  208  A    between atoms: _518  and  _519
REMARK  209  A    between atoms: _519  and  _520
REMARK  210  A    between atoms: _520  and  _521
REMARK  211  A    between atoms: _530  and  _532
REMARK  212  A    between atoms: _532  and  _533
REMARK  213  A    between atoms: _532  and  _535
REMARK  214  A    between atoms: _535  and  _536
REMARK  215  A    between atoms: _539  and  _541
REMARK  216  A    between atoms: _541  and  _542
REMARK  217  A    between atoms: _541  and  _544
REMARK  218  A    between atoms: _544  and  _545
REMARK  219  A    between atoms: _548  and  _550
REMARK  220  A    between atoms: _550  and  _551
REMARK  221  A    between atoms: _550  and  _553
REMARK  222  A    between atoms: _553  and  _554
REMARK                            x       y       z     vdW  Elec       q    Type
REMARK                         _______ _______ _______ _____ _____    ______ ____
ROOT
ATOM      1  CA  THR A   4      13.420   7.034  -7.524  0.00  0.00    +0.176 C 
ENDROOT
BRANCH   1   2
ATOM      2  C   THR A   4      13.277   8.071  -8.644  0.00  0.00    +0.243 C 
ATOM      3  N   VAL A   5      13.313   9.338  -8.253  0.00  0.00    -0.297 N 
ATOM      4  H   VAL A   5      13.290   9.556  -7.236  0.00  0.00    +0.150 HD
ATOM      5  O   THR A   4      13.128   7.726  -9.816  0.00  0.00    -0.273 OA
BRANCH   3   6
ATOM      6  CA  VAL A   5      13.385  10.445  -9.226  0.00  0.00    +0.149 C 
BRANCH   6   7
ATOM      7  C   VAL A   5      14.841  10.558  -9.662  0.00  0.00    +0.241 C 
ATOM      8  O   VAL A   5      15.767  10.418  -8.839  0.00  0.00    -0.273 OA
ATOM      9  N   ARG A   6      15.063  10.771 -10.958  0.00  0.00    -0.298 N 
ATOM     10  H   ARG A   6      14.260  10.896 -11.607  0.00  0.00    +0.150 HD
BRANCH   9  11
ATOM     11  CA  ARG A   6      16.427  10.830 -11.470  0.00  0.00    +0.137 C 
BRANCH  11  12
ATOM     12  C   ARG A   6      16.706  12.120 -12.219  0.00  0.00    +0.227 C 
ATOM     13  O   ARG A   6      15.796  12.725 -12.757  0.00  0.00    -0.286 OA
ENDBRANCH  11  12
BRANCH  11  14
ATOM     14  CB  ARG A   6      16.674   9.653 -12.413  0.00  0.00    +0.031 C 
BRANCH  14  15
ATOM     15  CG  ARG A   6      16.409   8.326 -11.738  0.00  0.00    +0.045 C 
BRANCH  15  16
ATOM     16  CD  ARG A   6      16.704   7.117 -12.620  0.00  0.00    +0.174 C 
BRANCH  16  17
ATOM     17  NE  ARG A   6      16.625   5.921 -11.775  0.00  0.00    -0.265 N 
ATOM     18  CZ  ARG A   6      17.644   5.408 -11.090  0.00  0.00    +0.342 C 
ATOM     19  NH2 ARG A   6      17.456   4.325 -10.306  0.00  0.00    -0.292 N 
ATOM     20 HH21 ARG A   6      18.253   3.925  -9.771  0.00  0.00    +0.255 HD
ATOM     21 HH22 ARG A   6      16.514   3.890 -10.237  0.00  0.00    +0.255 HD
ATOM     22  NH1 ARG A   6      18.864   5.933 -11.205  0.00  0.00    -0.292 N 
ATOM     23 HH11 ARG A   6      19.657   5.528 -10.667  0.00  0.00    +0.255 HD
ATOM     24 HH12 ARG A   6      19.023   6.747 -11.832  0.00  0.00    +0.255 HD
ATOM     25  HE  ARG A   6      15.706   5.439 -11.706  0.00  0.00    +0.259 HD
ENDBRANCH  16  17
ENDBRANCH  15  16
ENDBRANCH  14  15
ENDBRANCH  11  14
ENDBRANCH   9  11
ENDBRANCH   6   7
BRANCH   6  26
ATOM     26  CB  VAL A   5      12.878  11.804  -8.638  0.00  0.00    +0.027 C 
ATOM     27  CG2 VAL A   5      11.468  11.686  -8.112  0.00  0.00    +0.002 C 
ATOM     28  CG1 VAL A   5      12.948  12.936  -9.696  0.00  0.00    +0.002 C 
ENDBRANCH   6  26
ENDBRANCH   3   6
ENDBRANCH   1   2
BRANCH   1  31
ATOM     29  C   PRO A   3      11.087   6.369  -7.537  0.00  0.00    +0.241 C 
ATOM     30  O   PRO A   3      10.671   7.526  -7.486  0.00  0.00    -0.273 OA
ATOM     31  N   THR A   4      12.362   6.041  -7.594  0.00  0.00    -0.295 N 
ATOM     32  H   THR A   4      12.619   5.038  -7.692  0.00  0.00    +0.150 HD
BRANCH  29  39
ATOM     33  C   VAL A   2       9.130   5.699  -5.351  0.00  0.00    +0.244 C 
ATOM     34  O   VAL A   2      10.242   5.799  -4.847  0.00  0.00    -0.273 OA
ATOM     35  N   PRO A   3       8.963   5.409  -6.658  0.00  0.00    -0.272 N 
ATOM     36  CD  PRO A   3       7.695   5.182  -7.395  0.00  0.00    +0.094 C 
ATOM     37  CG  PRO A   3       8.151   4.399  -8.582  0.00  0.00    +0.024 C 
ATOM     38  CB  PRO A   3       9.518   5.002  -8.911  0.00  0.00    +0.031 C 
ATOM     39  CA  PRO A   3      10.137   5.196  -7.529  0.00  0.00    +0.152 C 
BRANCH  33  40
ATOM     40  CA  VAL A   2       7.868   5.821  -4.468  0.00  0.00    +0.149 C 
BRANCH  40  42
ATOM     41  C   GLY A   1       7.195   3.919  -3.100  0.00  0.00    +0.240 C 
ATOM     42  N   VAL A   2       8.030   4.921  -3.327  0.00  0.00    -0.297 N 
ATOM     43  H   VAL A   2       8.825   5.073  -2.674  0.00  0.00    +0.150 HD
ATOM     44  O   GLY A   1       6.320   3.591  -3.907  0.00  0.00    -0.274 OA
BRANCH  41  45
ATOM     45  CA  GLY A   1       7.366   3.161  -1.788  0.00  0.00    +0.169 C 
BRANCH  45  46
ATOM     46  N   GLY A   1       6.055   2.890  -1.189  0.00  0.00    -0.236 NA
ATOM     47  H   GLY A   1       5.548   2.016  -1.438  0.00  0.00    +0.142 HD
ENDBRANCH  45  46
ENDBRANCH  41  45
ENDBRANCH  40  42
BRANCH  40  48
ATOM     48  CB  VAL A   2       7.698   7.298  -4.003  0.00  0.00    +0.027 C 
ATOM     49  CG2 VAL A   2       6.508   7.456  -3.040  0.00  0.00    +0.002 C 
ATOM     50  CG1 VAL A   2       7.582   8.288  -5.198  0.00  0.00    +0.002 C 
ENDBRANCH  40  48
ENDBRANCH  33  40
ENDBRANCH  29  39
ENDBRANCH   1  31
BRANCH   1  51
ATOM     51  CB  THR A   4      14.763   6.312  -7.594  0.00  0.00    +0.137 C 
ATOM     52  CG2 THR A   4      15.956   7.279  -7.539  0.00  0.00    +0.034 C 
BRANCH  51  53
ATOM     53  OG1 THR A   4      14.819   5.461  -6.450  0.00  0.00    -0.382 OA
ATOM     54  HG1 THR A   4      15.677   4.967  -6.449  0.00  0.00    +0.210 HD
ENDBRANCH  51  53
ENDBRANCH   1  51
TORSDOF 19
REMARK  Name = ../refined-set-2016/3ivx/3ivx_pocket.pdb
REMARK  222 active torsions:
REMARK  status: ('A' for Active; 'I' for Inactive)
REMARK    1  A    between atoms: _1  and  _3
REMARK    2  A    between atoms: _3  and  _4
REMARK    3  A    between atoms: _3  and  _6
REMARK    4  A    between atoms: _6  and  _7
REMARK    5  A    between atoms: _10  and  _12
REMARK    6  A    between atoms: _12  and  _13
REMARK    7  A    between atoms: _12  and  _15
REMARK    8  A    between atoms: _19  and  _20
REMARK    9  A    between atoms: _25  and  _27
REMARK   10  A    between atoms: _27  and  _28
REMARK   11  A    between atoms: _27  and  _30
REMARK   12  A    between atoms: _30  and  _31
REMARK   13  A    between atoms: _34  and  _36
REMARK   14  A    between atoms: _36  and  _37
REMARK   15  A    between atoms: _36  and  _39
REMARK   16  A    between atoms: _39  and  _40
REMARK   17  A    between atoms: _40  and  _41
REMARK   18  A    between atoms: _43  and  _45
REMARK   19  A    between atoms: _45  and  _46
REMARK   20  A    between atoms: _48  and  _50
REMARK   21  A    between atoms: _50  and  _51
REMARK   22  A    between atoms: _54  and  _56
REMARK   23  A    between atoms: _56  and  _57
REMARK   24  A    between atoms: _56  and  _59
REMARK   25  A    between atoms: _59  and  _60
REMARK   26  A    between atoms: _63  and  _65
REMARK   27  A    between atoms: _65  and  _66
REMARK   28  A    between atoms: _65  and  _68
REMARK   29  A    between atoms: _68  and  _69
REMARK   30  A    between atoms: _74  and  _76
REMARK   31  A    between atoms: _76  and  _77
REMARK   32  A    between atoms: _76  and  _79
REMARK   33  A    between atoms: _79  and  _80
REMARK   34  A    between atoms: _80  and  _81
REMARK   35  A    between atoms: _84  and  _86
REMARK   36  A    between atoms: _86  and  _87
REMARK   37  A    between atoms: _89  and  _91
REMARK   38  A    between atoms: _91  and  _92
REMARK   39  A    between atoms: _91  and  _94
REMARK   40  A    between atoms: _94  and  _95
REMARK   41  A    between atoms: _100  and  _102
REMARK   42  A    between atoms: _102  and  _103
REMARK   43  A    between atoms: _102  and  _105
REMARK   44  A    between atoms: _105  and  _106
REMARK   45  A    between atoms: _109  and  _111
REMARK   46  A    between atoms: _111  and  _112
REMARK   47  A    between atoms: _115  and  _117
REMARK   48  A    between atoms: _117  and  _118
REMARK   49  A    between atoms: _117  and  _120
REMARK   50  A    between atoms: _120  and  _121
REMARK   51  A    between atoms: _124  and  _126
REMARK   52  A    between atoms: _126  and  _127
REMARK   53  A    between atoms: _126  and  _129
REMARK   54  A    between atoms: _132  and  _134
REMARK   55  A    between atoms: _134  and  _135
REMARK   56  A    between atoms: _138  and  _140
REMARK   57  A    between atoms: _140  and  _141
REMARK   58  A    between atoms: _140  and  _143
REMARK   59  A    between atoms: _143  and  _144
REMARK   60  A    between atoms: _146  and  _148
REMARK   61  A    between atoms: _148  and  _149
REMARK   62  A    between atoms: _148  and  _151
REMARK   63  A    between atoms: _151  and  _152
REMARK   64  A    between atoms: _155  and  _157
REMARK   65  A    between atoms: _157  and  _158
REMARK   66  A    between atoms: _157  and  _160
REMARK   67  A    between atoms: _160  and  _161
REMARK   68  A    between atoms: _167  and  _169
REMARK   69  A    between atoms: _169  and  _170
REMARK   70  A    between atoms: _169  and  _172
REMARK   71  A    between atoms: _175  and  _177
REMARK   72  A    between atoms: _177  and  _178
REMARK   73  A    between atoms: _177  and  _180
REMARK   74  A    between atoms: _180  and  _181
REMARK   75  A    between atoms: _186  and  _188
REMARK   76  A    between atoms: _188  and  _189
REMARK   77  A    between atoms: _188  and  _191
REMARK   78  A    between atoms: _191  and  _192
REMARK   79  A    between atoms: _192  and  _193
REMARK   80  A    between atoms: _198  and  _200
REMARK   81  A    between atoms: _200  and  _201
REMARK   82  A    between atoms: _200  and  _203
REMARK   83  A    between atoms: _203  and  _204
REMARK   84  A    between atoms: _209  and  _210
REMARK   85  A    between atoms: _213  and  _214
REMARK   86  A    between atoms: _219  and  _221
REMARK   87  A    between atoms: _221  and  _222
REMARK   88  A    between atoms: _224  and  _226
REMARK   89  A    between atoms: _226  and  _227
REMARK   90  A    between atoms: _226  and  _229
REMARK   91  A    between atoms: _232  and  _234
REMARK   92  A    between atoms: _234  and  _235
REMARK   93  A    between atoms: _234  and  _237
REMARK   94  A    between atoms: _237  and  _238
REMARK   95  A    between atoms: _241  and  _243
REMARK   96  A    between atoms: _243  and  _244
REMARK   97  A    between atoms: _243  and  _246
REMARK   98  A    between atoms: _249  and  _251
REMARK   99  A    between atoms: _251  and  _252
REMARK  100  A    between atoms: _251  and  _254
REMARK  101  A    between atoms: _257  and  _259
REMARK  102  A    between atoms: _259  and  _260
REMARK  103  A    between atoms: _259  and  _262
REMARK  104  A    between atoms: _262  and  _263
REMARK  105  A    between atoms: _266  and  _268
REMARK  106  A    between atoms: _268  and  _269
REMARK  107  A    between atoms: _268  and  _271
REMARK  108  A    between atoms: _271  and  _272
REMARK  109  A    between atoms: _275  and  _277
REMARK  110  A    between atoms: _277  and  _278
REMARK  111  A    between atoms: _277  and  _280
REMARK  112  A    between atoms: _283  and  _285
REMARK  113  A    between atoms: _285  and  _286
REMARK  114  A    between atoms: _285  and  _288
REMARK  115  A    between atoms: _288  and  _289
REMARK  116  A    between atoms: _295  and  _297
REMARK  117  A    between atoms: _297  and  _298
REMARK  118  A    between atoms: _297  and  _300
REMARK  119  A    between atoms: _300  and  _301
REMARK  120  A    between atoms: _307  and  _309
REMARK  121  A    between atoms: _309  and  _310
REMARK  122  A    between atoms: _312  and  _314
REMARK  123  A    between atoms: _314  and  _315
REMARK  124  A    between atoms: _314  and  _317
REMARK  125  A    between atoms: _317  and  _318
REMARK  126  A    between atoms: _318  and  _319
REMARK  127  A    between atoms: _322  and  _324
REMARK  128  A    between atoms: _324  and  _325
REMARK  129  A    between atoms: _324  and  _327
REMARK  130  A    between atoms: _327  and  _328
REMARK  131  A    between atoms: _328  and  _329
REMARK  132  A    between atoms: _329  and  _330
REMARK  133  A    between atoms: _330  and  _331
REMARK  134  A    between atoms: _335  and  _337
REMARK  135  A    between atoms: _337  and  _338
REMARK  136  A    between atoms: _337  and  _340
REMARK  137  A    between atoms: _340  and  _341
REMARK  138  A    between atoms: _344  and  _346
REMARK  139  A    between atoms: _346  and  _347
REMARK  140  A    between atoms: _346  and  _349
REMARK  141  A    between atoms: _349  and  _350
REMARK  142  A    between atoms: _350  and  _351
REMARK  143  A    between atoms: _356  and  _358
REMARK  144  A    between atoms: _358  and  _359
REMARK  145  A    between atoms: _358  and  _361
REMARK  146  A    between atoms: _361  and  _362
REMARK  147  A    between atoms: _365  and  _367
REMARK  148  A    between atoms: _367  and  _368
REMARK  149  A    between atoms: _367  and  _370
REMARK  150  A    between atoms: _370  and  _371
REMARK  151  A    between atoms: _374  and  _376
REMARK  152  A    between atoms: _376  and  _377
REMARK  153  A    between atoms: _379  and  _381
REMARK  154  A    between atoms: _381  and  _382
REMARK  155  A    between atoms: _381  and  _384
REMARK  156  A    between atoms: _388  and  _389
REMARK  157  A    between atoms: _394  and  _396
REMARK  158  A    between atoms: _396  and  _397
REMARK  159  A    between atoms: _396  and  _399
REMARK  160  A    between atoms: _399  and  _400
REMARK  161  A    between atoms: _403  and  _405
REMARK  162  A    between atoms: _405  and  _406
REMARK  163  A    between atoms: _405  and  _408
REMARK  164  A    between atoms: _411  and  _413
REMARK  165  A    between atoms: _413  and  _414
REMARK  166  A    between atoms: _413  and  _416
REMARK  167  A    between atoms: _416  and  _417
REMARK  168  A    between atoms: _417  and  _418
REMARK  169  A    between atoms: _418  and  _419
REMARK  170  A    between atoms: _428  and  _430
REMARK  171  A    between atoms: _430  and  _431
REMARK  172  A    between atoms: _430  and  _433
REMARK  173  A    between atoms: _433  and  _434
REMARK  174  A    between atoms: _437  and  _439
REMARK  175  A    between atoms: _439  and  _440
REMARK  176  A    between atoms: _443  and  _445
REMARK  177  A    between atoms: _445  and  _446
REMARK  178  A    between atoms: _445  and  _448
REMARK  179  A    between atoms: _448  and  _449
REMARK  180  A    between atoms: _449  and  _450
REMARK  181  A    between atoms: _452  and  _454
REMARK  182  A    between atoms: _454  and  _455
REMARK  183  A    between atoms: _454  and  _457
REMARK  184  A    between atoms: _457  and  _458
REMARK  185  A    between atoms: _460  and  _462
REMARK  186  A    between atoms: _462  and  _463
REMARK  187  A    between atoms: _462  and  _465
REMARK  188  A    between atoms: _465  and  _466
REMARK  189  A    between atoms: _468  and  _470
REMARK  190  A    between atoms: _470  and  _471
REMARK  191  A    between atoms: _470  and  _473
REMARK  192  A    between atoms: _473  and  _474
REMARK  193  A    between atoms: _474  and  _475
REMARK  194  A    between atoms: _475  and  _476
REMARK  195  A    between atoms: _485  and  _487
REMARK  196  A    between atoms: _487  and  _488
REMARK  197  A    between atoms: _487  and  _490
REMARK  198  A    between atoms: _490  and  _491
REMARK  199  A    between atoms: _496  and  _498
REMARK  200  A    between atoms: _498  and  _499
REMARK  201  A    between atoms: _498  and  _501
REMARK  202  A    between atoms: _501  and  _502
REMARK  203  A    between atoms: _502  and  _503
REMARK  204  A    between atoms: _503  and  _504
REMARK  205  A    between atoms: _513  and  _515
REMARK  206  A    between atoms: _515  and  _516
REMARK  207  A    between atoms: _515  and  _518
REMARK  208  A    between atoms: _518  and  _519
REMARK  209  A    between atoms: _519  and  _520
REMARK  210  A    between atoms: _520  and  _521
REMARK  211  A    between atoms: _530  and  _532
REMARK  212  A    between atoms: _532  and  _533
REMARK  213  A    between atoms: _532  and  _535
REMARK  214  A    between atoms: _535  and  _536
REMARK  215  A    between atoms: _539  and  _541
REMARK  216  A    between atoms: _541  and  _542
REMARK  217  A    between atoms: _541  and  _544
REMARK  218  A    between atoms: _544  and  _545
REMARK  219  A    between atoms: _548  and  _550
REMARK  220  A    between atoms: _550  and  _551
REMARK  221  A    between atoms: _550  and  _553
REMARK  222  A    between atoms: _553  and  _554
REMARK                            x       y       z     vdW  Elec       q    Type
REMARK                         _______ _______ _______ _____ _____    ______ ____
ROOT
ATOM      1  CA  ARG A   6      24.825  13.901  -1.476  0.00  0.00    +0.149 C 
ENDROOT
BRANCH   1   2
ATOM      2  C   ARG A   6      25.396  14.290  -2.846  0.00  0.00    +0.241 C 
ATOM      3  O   ARG A   6      26.620  14.454  -2.997  0.00  0.00    -0.273 OA
ATOM      4  N   ASN A   7      24.521  14.417  -3.847  0.00  0.00    -0.297 N 
ATOM      5  H   ASN A   7      23.512  14.242  -3.666  0.00  0.00    +0.150 HD
BRANCH   4   6
ATOM      6  CA  ASN A   7      24.952  14.797  -5.194  0.00  0.00    +0.158 C 
BRANCH   6   7
ATOM      7  C   ASN A   7      25.678  16.138  -5.213  0.00  0.00    +0.241 C 
ATOM      8  N   ARG A   8      25.332  17.024  -4.269  0.00  0.00    -0.298 N 
ATOM      9  H   ARG A   8      24.576  16.773  -3.600  0.00  0.00    +0.150 HD
ATOM     10  O   ASN A   7      26.531  16.361  -6.065  0.00  0.00    -0.273 OA
BRANCH   8  11
ATOM     11  CA  ARG A   8      25.980  18.336  -4.143  0.00  0.00    +0.137 C 
BRANCH  11  12
ATOM     12  C   ARG A   8      27.491  18.233  -3.890  0.00  0.00    +0.227 C 
ATOM     13  O   ARG A   8      28.218  19.192  -4.145  0.00  0.00    -0.286 OA
ENDBRANCH  11  12
BRANCH  11  14
ATOM     14  CB  ARG A   8      25.349  19.105  -2.985  0.00  0.00    +0.031 C 
BRANCH  14  15
ATOM     15  CG  ARG A   8      25.625  18.445  -1.622  0.00  0.00    +0.045 C 
BRANCH  15  16
ATOM     16  CD  ARG A   8      24.931  19.192  -0.496  0.00  0.00    +0.174 C 
BRANCH  16  17
ATOM     17  NE  ARG A   8      23.503  18.958  -0.612  0.00  0.00    -0.265 N 
ATOM     18  CZ  ARG A   8      22.565  19.884  -0.471  0.00  0.00    +0.342 C 
ATOM     19  NH2 ARG A   8      22.886  21.141  -0.181  0.00  0.00    -0.292 N 
ATOM     20 HH21 ARG A   8      23.884  21.409  -0.062  0.00  0.00    +0.255 HD
ATOM     21 HH22 ARG A   8      22.139  21.857  -0.073  0.00  0.00    +0.255 HD
ATOM     22  NH1 ARG A   8      21.302  19.538  -0.625  0.00  0.00    -0.292 N 
ATOM     23 HH11 ARG A   8      20.551  20.250  -0.519  0.00  0.00    +0.255 HD
ATOM     24 HH12 ARG A   8      21.057  18.553  -0.853  0.00  0.00    +0.255 HD
ATOM     25  HE  ARG A   8      23.192  17.988  -0.822  0.00  0.00    +0.259 HD
ENDBRANCH  16  17
ENDBRANCH  15  16
ENDBRANCH  14  15
ENDBRANCH  11  14
ENDBRANCH   8  11
ENDBRANCH   6   7
BRANCH   6  26
ATOM     26  CB  ASN A   7      23.772  14.808  -6.202  0.00  0.00    +0.114 C 
BRANCH  26  27
ATOM     27  CG  ASN A   7      23.249  13.397  -6.509  0.00  0.00    +0.222 C 
ATOM     28  OD1 ASN A   7      23.868  12.419  -6.140  0.00  0.00    -0.275 OA
ATOM     29  ND2 ASN A   7      22.108  13.308  -7.190  0.00  0.00    -0.329 N 
ATOM     30 HD21 ASN A   7      21.714  12.375  -7.425  0.00  0.00    +0.145 HD
ATOM     31 HD22 ASN A   7      21.611  14.172  -7.486  0.00  0.00    +0.145 HD
ENDBRANCH  26  27
ENDBRANCH   6  26
ENDBRANCH   4   6
ENDBRANCH   1   2
BRANCH   1  34
ATOM     32  C   SER A   5      22.790  15.210  -1.198  0.00  0.00    +0.243 C 
ATOM     33  O   SER A   5      23.418  16.259  -1.165  0.00  0.00    -0.273 OA
ATOM     34  N   ARG A   6      23.363  14.034  -1.420  0.00  0.00    -0.297 N 
ATOM     35  H   ARG A   6      22.767  13.193  -1.557  0.00  0.00    +0.150 HD
BRANCH  32  36
ATOM     36  CA  SER A   5      21.276  15.211  -1.000  0.00  0.00    +0.178 C 
BRANCH  36  38
ATOM     37  C   SER A   4      20.821  13.922  -3.019  0.00  0.00    +0.243 C 
ATOM     38  N   SER A   5      20.646  14.098  -1.710  0.00  0.00    -0.295 N 
ATOM     39  H   SER A   5      20.049  13.430  -1.182  0.00  0.00    +0.150 HD
ATOM     40  O   SER A   4      21.381  14.745  -3.755  0.00  0.00    -0.273 OA
BRANCH  37  41
ATOM     41  CA  SER A   4      20.293  12.642  -3.586  0.00  0.00    +0.178 C 
BRANCH  41  44
ATOM     42  C   MET A   3      18.959  11.945  -5.468  0.00  0.00    +0.241 C 
ATOM     43  O   MET A   3      18.726  10.857  -4.897  0.00  0.00    -0.273 OA
ATOM     44  N   SER A   4      19.748  12.869  -4.920  0.00  0.00    -0.295 N 
ATOM     45  H   SER A   4      19.973  13.742  -5.438  0.00  0.00    +0.150 HD
BRANCH  42  46
ATOM     46  CA  MET A   3      18.362  12.271  -6.839  0.00  0.00    +0.149 C 
BRANCH  46  49
ATOM     47  C   ALA A   2      19.524  10.440  -7.946  0.00  0.00    +0.241 C 
ATOM     48  O   ALA A   2      20.605  10.898  -7.617  0.00  0.00    -0.273 OA
ATOM     49  N   MET A   3      18.376  11.066  -7.681  0.00  0.00    -0.297 N 
ATOM     50  H   MET A   3      17.485  10.699  -8.073  0.00  0.00    +0.150 HD
BRANCH  47  51
ATOM     51  CA  ALA A   2      19.456   9.132  -8.753  0.00  0.00    +0.149 C 
ATOM     52  CB  ALA A   2      19.650   7.944  -7.815  0.00  0.00    +0.031 C 
BRANCH  51  54
ATOM     53  C   LEU A   1      20.481  10.065 -10.758  0.00  0.00    +0.238 C 
ATOM     54  N   ALA A   2      20.441   9.099  -9.838  0.00  0.00    -0.297 N 
ATOM     55  H   ALA A   2      21.118   8.312  -9.892  0.00  0.00    +0.150 HD
ATOM     56  O   LEU A   1      19.659  10.962 -10.804  0.00  0.00    -0.274 OA
BRANCH  53  57
ATOM     57  CA  LEU A   1      21.595  10.000 -11.804  0.00  0.00    +0.145 C 
BRANCH  57  58
ATOM     58  N   LEU A   1      21.061   9.915 -13.163  0.00  0.00    -0.238 NA
ATOM     59  H   LEU A   1      21.342  10.635 -13.859  0.00  0.00    +0.142 HD
ENDBRANCH  57  58
BRANCH  57  60
ATOM     60  CB  LEU A   1      22.520  11.217 -11.650  0.00  0.00    +0.026 C 
BRANCH  60  61
ATOM     61  CG  LEU A   1      23.144  11.380 -10.242  0.00  0.00    +0.002 C 
ATOM     62  CD2 LEU A   1      23.964  10.151  -9.817  0.00  0.00    +0.000 C 
ATOM     63  CD1 LEU A   1      23.992  12.670 -10.164  0.00  0.00    +0.000 C 
ENDBRANCH  60  61
ENDBRANCH  57  60
ENDBRANCH  53  57
ENDBRANCH  51  54
ENDBRANCH  47  51
ENDBRANCH  46  49
BRANCH  46  64
ATOM     64  CB  MET A   3      16.924  12.821  -6.649  0.00  0.00    +0.041 C 
BRANCH  64  65
ATOM     65  CG  MET A   3      16.262  13.529  -7.830  0.00  0.00    +0.060 C 
BRANCH  65  66
ATOM     66  SD  MET A   3      17.330  14.788  -8.483  0.00  0.00    -0.139 S 
ATOM     67  CE  MET A   3      16.289  15.518  -9.782  0.00  0.00    +0.069 C 
ENDBRANCH  65  66
ENDBRANCH  64  65
ENDBRANCH  46  64
ENDBRANCH  42  46
ENDBRANCH  41  44
BRANCH  41  68
ATOM     68  CB  SER A   4      21.457  11.636  -3.631  0.00  0.00    +0.166 C 
BRANCH  68  69
ATOM     69  OG  SER A   4      22.063  11.469  -2.340  0.00  0.00    -0.380 OA
ATOM     70  H   SER A   4      21.386  11.135  -1.700  0.00  0.00    +0.211 HD
ENDBRANCH  68  69
ENDBRANCH  41  68
ENDBRANCH  37  41
ENDBRANCH  36  38
BRANCH  36  71
ATOM     71  CB  SER A   5      20.958  15.159   0.499  0.00  0.00    +0.166 C 
BRANCH  71  72
ATOM     72  OG  SER A   5      21.722  14.160   1.154  0.00  0.00    -0.380 OA
ATOM     73  H   SER A   5      21.517  13.276   0.757  0.00  0.00    +0.211 HD
ENDBRANCH  71  72
ENDBRANCH  36  71
ENDBRANCH  32  36
ENDBRANCH   1  34
BRANCH   1  74
ATOM     74  CB  ARG A   6      25.280  12.477  -1.124  0.00  0.00    +0.033 C 
BRANCH  74  75
ATOM     75  CG  ARG A   6      24.629  11.830   0.103  0.00  0.00    +0.045 C 
BRANCH  75  76
ATOM     76  CD  ARG A   6      25.430  12.009   1.414  0.00  0.00    +0.174 C 
BRANCH  76  77
ATOM     77  NE  ARG A   6      26.871  11.766   1.280  0.00  0.00    -0.265 N 
ATOM     78  CZ  ARG A   6      27.487  10.590   1.419  0.00  0.00    +0.342 C 
ATOM     79  NH2 ARG A   6      26.802   9.481   1.692  0.00  0.00    -0.292 N 
ATOM     80 HH21 ARG A   6      25.768   9.522   1.801  0.00  0.00    +0.255 HD
ATOM     81 HH22 ARG A   6      27.301   8.574   1.797  0.00  0.00    +0.255 HD
ATOM     82  NH1 ARG A   6      28.813  10.522   1.277  0.00  0.00    -0.292 N 
ATOM     83 HH11 ARG A   6      29.301   9.610   1.384  0.00  0.00    +0.255 HD
ATOM     84 HH12 ARG A   6      29.357  11.381   1.060  0.00  0.00    +0.255 HD
ATOM     85  HE  ARG A   6      27.468  12.587   1.056  0.00  0.00    +0.259 HD
ENDBRANCH  76  77
ENDBRANCH  75  76
ENDBRANCH  74  75
ENDBRANCH   1  74
TORSDOF 35
REMARK  Name = ../refined-set-2016/3ivx/3ivx_pocket.pdb
REMARK  222 active torsions:
REMARK  status: ('A' for Active; 'I' for Inactive)
REMARK    1  A    between atoms: _1  and  _3
REMARK    2  A    between atoms: _3  and  _4
REMARK    3  A    between atoms: _3  and  _6
REMARK    4  A    between atoms: _6  and  _7
REMARK    5  A    between atoms: _10  and  _12
REMARK    6  A    between atoms: _12  and  _13
REMARK    7  A    between atoms: _12  and  _15
REMARK    8  A    between atoms: _19  and  _20
REMARK    9  A    between atoms: _25  and  _27
REMARK   10  A    between atoms: _27  and  _28
REMARK   11  A    between atoms: _27  and  _30
REMARK   12  A    between atoms: _30  and  _31
REMARK   13  A    between atoms: _34  and  _36
REMARK   14  A    between atoms: _36  and  _37
REMARK   15  A    between atoms: _36  and  _39
REMARK   16  A    between atoms: _39  and  _40
REMARK   17  A    between atoms: _40  and  _41
REMARK   18  A    between atoms: _43  and  _45
REMARK   19  A    between atoms: _45  and  _46
REMARK   20  A    between atoms: _48  and  _50
REMARK   21  A    between atoms: _50  and  _51
REMARK   22  A    between atoms: _54  and  _56
REMARK   23  A    between atoms: _56  and  _57
REMARK   24  A    between atoms: _56  and  _59
REMARK   25  A    between atoms: _59  and  _60
REMARK   26  A    between atoms: _63  and  _65
REMARK   27  A    between atoms: _65  and  _66
REMARK   28  A    between atoms: _65  and  _68
REMARK   29  A    between atoms: _68  and  _69
REMARK   30  A    between atoms: _74  and  _76
REMARK   31  A    between atoms: _76  and  _77
REMARK   32  A    between atoms: _76  and  _79
REMARK   33  A    between atoms: _79  and  _80
REMARK   34  A    between atoms: _80  and  _81
REMARK   35  A    between atoms: _84  and  _86
REMARK   36  A    between atoms: _86  and  _87
REMARK   37  A    between atoms: _89  and  _91
REMARK   38  A    between atoms: _91  and  _92
REMARK   39  A    between atoms: _91  and  _94
REMARK   40  A    between atoms: _94  and  _95
REMARK   41  A    between atoms: _100  and  _102
REMARK   42  A    between atoms: _102  and  _103
REMARK   43  A    between atoms: _102  and  _105
REMARK   44  A    between atoms: _105  and  _106
REMARK   45  A    between atoms: _109  and  _111
REMARK   46  A    between atoms: _111  and  _112
REMARK   47  A    between atoms: _115  and  _117
REMARK   48  A    between atoms: _117  and  _118
REMARK   49  A    between atoms: _117  and  _120
REMARK   50  A    between atoms: _120  and  _121
REMARK   51  A    between atoms: _124  and  _126
REMARK   52  A    between atoms: _126  and  _127
REMARK   53  A    between atoms: _126  and  _129
REMARK   54  A    between atoms: _132  and  _134
REMARK   55  A    between atoms: _134  and  _135
REMARK   56  A    between atoms: _138  and  _140
REMARK   57  A    between atoms: _140  and  _141
REMARK   58  A    between atoms: _140  and  _143
REMARK   59  A    between atoms: _143  and  _144
REMARK   60  A    between atoms: _146  and  _148
REMARK   61  A    between atoms: _148  and  _149
REMARK   62  A    between atoms: _148  and  _151
REMARK   63  A    between atoms: _151  and  _152
REMARK   64  A    between atoms: _155  and  _157
REMARK   65  A    between atoms: _157  and  _158
REMARK   66  A    between atoms: _157  and  _160
REMARK   67  A    between atoms: _160  and  _161
REMARK   68  A    between atoms: _167  and  _169
REMARK   69  A    between atoms: _169  and  _170
REMARK   70  A    between atoms: _169  and  _172
REMARK   71  A    between atoms: _175  and  _177
REMARK   72  A    between atoms: _177  and  _178
REMARK   73  A    between atoms: _177  and  _180
REMARK   74  A    between atoms: _180  and  _181
REMARK   75  A    between atoms: _186  and  _188
REMARK   76  A    between atoms: _188  and  _189
REMARK   77  A    between atoms: _188  and  _191
REMARK   78  A    between atoms: _191  and  _192
REMARK   79  A    between atoms: _192  and  _193
REMARK   80  A    between atoms: _198  and  _200
REMARK   81  A    between atoms: _200  and  _201
REMARK   82  A    between atoms: _200  and  _203
REMARK   83  A    between atoms: _203  and  _204
REMARK   84  A    between atoms: _209  and  _210
REMARK   85  A    between atoms: _213  and  _214
REMARK   86  A    between atoms: _219  and  _221
REMARK   87  A    between atoms: _221  and  _222
REMARK   88  A    between atoms: _224  and  _226
REMARK   89  A    between atoms: _226  and  _227
REMARK   90  A    between atoms: _226  and  _229
REMARK   91  A    between atoms: _232  and  _234
REMARK   92  A    between atoms: _234  and  _235
REMARK   93  A    between atoms: _234  and  _237
REMARK   94  A    between atoms: _237  and  _238
REMARK   95  A    between atoms: _241  and  _243
REMARK   96  A    between atoms: _243  and  _244
REMARK   97  A    between atoms: _243  and  _246
REMARK   98  A    between atoms: _249  and  _251
REMARK   99  A    between atoms: _251  and  _252
REMARK  100  A    between atoms: _251  and  _254
REMARK  101  A    between atoms: _257  and  _259
REMARK  102  A    between atoms: _259  and  _260
REMARK  103  A    between atoms: _259  and  _262
REMARK  104  A    between atoms: _262  and  _263
REMARK  105  A    between atoms: _266  and  _268
REMARK  106  A    between atoms: _268  and  _269
REMARK  107  A    between atoms: _268  and  _271
REMARK  108  A    between atoms: _271  and  _272
REMARK  109  A    between atoms: _275  and  _277
REMARK  110  A    between atoms: _277  and  _278
REMARK  111  A    between atoms: _277  and  _280
REMARK  112  A    between atoms: _283  and  _285
REMARK  113  A    between atoms: _285  and  _286
REMARK  114  A    between atoms: _285  and  _288
REMARK  115  A    between atoms: _288  and  _289
REMARK  116  A    between atoms: _295  and  _297
REMARK  117  A    between atoms: _297  and  _298
REMARK  118  A    between atoms: _297  and  _300
REMARK  119  A    between atoms: _300  and  _301
REMARK  120  A    between atoms: _307  and  _309
REMARK  121  A    between atoms: _309  and  _310
REMARK  122  A    between atoms: _312  and  _314
REMARK  123  A    between atoms: _314  and  _315
REMARK  124  A    between atoms: _314  and  _317
REMARK  125  A    between atoms: _317  and  _318
REMARK  126  A    between atoms: _318  and  _319
REMARK  127  A    between atoms: _322  and  _324
REMARK  128  A    between atoms: _324  and  _325
REMARK  129  A    between atoms: _324  and  _327
REMARK  130  A    between atoms: _327  and  _328
REMARK  131  A    between atoms: _328  and  _329
REMARK  132  A    between atoms: _329  and  _330
REMARK  133  A    between atoms: _330  and  _331
REMARK  134  A    between atoms: _335  and  _337
REMARK  135  A    between atoms: _337  and  _338
REMARK  136  A    between atoms: _337  and  _340
REMARK  137  A    between atoms: _340  and  _341
REMARK  138  A    between atoms: _344  and  _346
REMARK  139  A    between atoms: _346  and  _347
REMARK  140  A    between atoms: _346  and  _349
REMARK  141  A    between atoms: _349  and  _350
REMARK  142  A    between atoms: _350  and  _351
REMARK  143  A    between atoms: _356  and  _358
REMARK  144  A    between atoms: _358  and  _359
REMARK  145  A    between atoms: _358  and  _361
REMARK  146  A    between atoms: _361  and  _362
REMARK  147  A    between atoms: _365  and  _367
REMARK  148  A    between atoms: _367  and  _368
REMARK  149  A    between atoms: _367  and  _370
REMARK  150  A    between atoms: _370  and  _371
REMARK  151  A    between atoms: _374  and  _376
REMARK  152  A    between atoms: _376  and  _377
REMARK  153  A    between atoms: _379  and  _381
REMARK  154  A    between atoms: _381  and  _382
REMARK  155  A    between atoms: _381  and  _384
REMARK  156  A    between atoms: _388  and  _389
REMARK  157  A    between atoms: _394  and  _396
REMARK  158  A    between atoms: _396  and  _397
REMARK  159  A    between atoms: _396  and  _399
REMARK  160  A    between atoms: _399  and  _400
REMARK  161  A    between atoms: _403  and  _405
REMARK  162  A    between atoms: _405  and  _406
REMARK  163  A    between atoms: _405  and  _408
REMARK  164  A    between atoms: _411  and  _413
REMARK  165  A    between atoms: _413  and  _414
REMARK  166  A    between atoms: _413  and  _416
REMARK  167  A    between atoms: _416  and  _417
REMARK  168  A    between atoms: _417  and  _418
REMARK  169  A    between atoms: _418  and  _419
REMARK  170  A    between atoms: _428  and  _430
REMARK  171  A    between atoms: _430  and  _431
REMARK  172  A    between atoms: _430  and  _433
REMARK  173  A    between atoms: _433  and  _434
REMARK  174  A    between atoms: _437  and  _439
REMARK  175  A    between atoms: _439  and  _440
REMARK  176  A    between atoms: _443  and  _445
REMARK  177  A    between atoms: _445  and  _446
REMARK  178  A    between atoms: _445  and  _448
REMARK  179  A    between atoms: _448  and  _449
REMARK  180  A    between atoms: _449  and  _450
REMARK  181  A    between atoms: _452  and  _454
REMARK  182  A    between atoms: _454  and  _455
REMARK  183  A    between atoms: _454  and  _457
REMARK  184  A    between atoms: _457  and  _458
REMARK  185  A    between atoms: _460  and  _462
REMARK  186  A    between atoms: _462  and  _463
REMARK  187  A    between atoms: _462  and  _465
REMARK  188  A    between atoms: _465  and  _466
REMARK  189  A    between atoms: _468  and  _470
REMARK  190  A    between atoms: _470  and  _471
REMARK  191  A    between atoms: _470  and  _473
REMARK  192  A    between atoms: _473  and  _474
REMARK  193  A    between atoms: _474  and  _475
REMARK  194  A    between atoms: _475  and  _476
REMARK  195  A    between atoms: _485  and  _487
REMARK  196  A    between atoms: _487  and  _488
REMARK  197  A    between atoms: _487  and  _490
REMARK  198  A    between atoms: _490  and  _491
REMARK  199  A    between atoms: _496  and  _498
REMARK  200  A    between atoms: _498  and  _499
REMARK  201  A    between atoms: _498  and  _501
REMARK  202  A    between atoms: _501  and  _502
REMARK  203  A    between atoms: _502  and  _503
REMARK  204  A    between atoms: _503  and  _504
REMARK  205  A    between atoms: _513  and  _515
REMARK  206  A    between atoms: _515  and  _516
REMARK  207  A    between atoms: _515  and  _518
REMARK  208  A    between atoms: _518  and  _519
REMARK  209  A    between atoms: _519  and  _520
REMARK  210  A    between atoms: _520  and  _521
REMARK  211  A    between atoms: _530  and  _532
REMARK  212  A    between atoms: _532  and  _533
REMARK  213  A    between atoms: _532  and  _535
REMARK  214  A    between atoms: _535  and  _536
REMARK  215  A    between atoms: _539  and  _541
REMARK  216  A    between atoms: _541  and  _542
REMARK  217  A    between atoms: _541  and  _544
REMARK  218  A    between atoms: _544  and  _545
REMARK  219  A    between atoms: _548  and  _550
REMARK  220  A    between atoms: _550  and  _551
REMARK  221  A    between atoms: _550  and  _553
REMARK  222  A    between atoms: _553  and  _554
REMARK                            x       y       z     vdW  Elec       q    Type
REMARK                         _______ _______ _______ _____ _____    ______ ____
ROOT
ATOM      1  C   ARG A   1      27.988   7.652  -1.987  0.00  0.00    +0.238 C 
ATOM      2  O   ARG A   1      27.111   8.323  -1.446  0.00  0.00    -0.274 OA
ATOM      3  N   LEU A   2      27.807   6.988  -3.127  0.00  0.00    -0.297 N 
ATOM      4  H   LEU A   2      28.598   6.440  -3.521  0.00  0.00    +0.150 HD
ENDROOT
BRANCH   1   5
ATOM      5  CA  ARG A   1      29.385   7.561  -1.366  0.00  0.00    +0.145 C 
BRANCH   5   6
ATOM      6  N   ARG A   1      29.882   8.906  -1.178  0.00  0.00    -0.238 NA
ATOM      7  H   ARG A   1      29.575   9.463  -0.355  0.00  0.00    +0.142 HD
ENDBRANCH   5   6
BRANCH   5   8
ATOM      8  CB  ARG A   1      29.385   6.803  -0.033  0.00  0.00    +0.030 C 
BRANCH   8   9
ATOM      9  CG  ARG A   1      29.255   5.325  -0.168  0.00  0.00    +0.045 C 
BRANCH   9  10
ATOM     10  CD  ARG A   1      29.696   4.609   1.115  0.00  0.00    +0.174 C 
BRANCH  10  11
ATOM     11  NE  ARG A   1      29.380   3.192   1.028  0.00  0.00    -0.265 N 
ATOM     12  CZ  ARG A   1      28.172   2.708   1.288  0.00  0.00    +0.342 C 
ATOM     13  NH2 ARG A   1      27.227   3.551   1.683  0.00  0.00    -0.292 N 
ATOM     14 HH21 ARG A   1      26.271   3.199   1.894  0.00  0.00    +0.255 HD
ATOM     15 HH22 ARG A   1      27.442   4.564   1.782  0.00  0.00    +0.255 HD
ATOM     16  NH1 ARG A   1      27.928   1.402   1.192  0.00  0.00    -0.292 N 
ATOM     17 HH11 ARG A   1      26.977   1.034   1.398  0.00  0.00    +0.255 HD
ATOM     18 HH12 ARG A   1      28.688   0.750   0.911  0.00  0.00    +0.255 HD
ATOM     19  HE  ARG A   1      30.133   2.530   0.750  0.00  0.00    +0.259 HD
ENDBRANCH  10  11
ENDBRANCH   9  10
ENDBRANCH   8   9
ENDBRANCH   5   8
ENDBRANCH   1   5
BRANCH   3  20
ATOM     20  CA  LEU A   2      26.522   7.004  -3.849  0.00  0.00    +0.149 C 
BRANCH  20  21
ATOM     21  C   LEU A   2      25.842   5.641  -3.839  0.00  0.00    +0.241 C 
ATOM     22  N   LEU A   3      24.507   5.634  -3.765  0.00  0.00    -0.298 N 
ATOM     23  H   LEU A   3      24.003   6.540  -3.681  0.00  0.00    +0.150 HD
ATOM     24  O   LEU A   2      26.508   4.626  -3.888  0.00  0.00    -0.273 OA
BRANCH  22  25
ATOM     25  CA  LEU A   3      23.729   4.387  -3.799  0.00  0.00    +0.137 C 
BRANCH  25  26
ATOM     26  C   LEU A   3      22.781   4.410  -4.982  0.00  0.00    +0.227 C 
ATOM     27  O   LEU A   3      22.300   5.439  -5.340  0.00  0.00    -0.286 OA
ENDBRANCH  25  26
BRANCH  25  28
ATOM     28  CB  LEU A   3      22.868   4.231  -2.536  0.00  0.00    +0.028 C 
BRANCH  28  29
ATOM     29  CG  LEU A   3      23.558   4.153  -1.164  0.00  0.00    +0.002 C 
ATOM     30  CD2 LEU A   3      22.649   3.458  -0.171  0.00  0.00    +0.000 C 
ATOM     31  CD1 LEU A   3      24.831   3.411  -1.253  0.00  0.00    +0.000 C 
ENDBRANCH  28  29
ENDBRANCH  25  28
ENDBRANCH  22  25
ENDBRANCH  20  21
BRANCH  20  32
ATOM     32  CB  LEU A   2      26.733   7.486  -5.296  0.00  0.00    +0.029 C 
BRANCH  32  33
ATOM     33  CG  LEU A   2      27.313   8.888  -5.531  0.00  0.00    +0.002 C 
ATOM     34  CD2 LEU A   2      26.428   9.988  -4.858  0.00  0.00    +0.000 C 
ATOM     35  CD1 LEU A   2      27.396   9.158  -7.000  0.00  0.00    +0.000 C 
ENDBRANCH  32  33
ENDBRANCH  20  32
ENDBRANCH   3  20
TORSDOF 14
REMARK  Name = ../refined-set-2016/3ivx/3ivx_pocket.pdb
REMARK  222 active torsions:
REMARK  status: ('A' for Active; 'I' for Inactive)
REMARK    1  A    between atoms: _1  and  _3
REMARK    2  A    between atoms: _3  and  _4
REMARK    3  A    between atoms: _3  and  _6
REMARK    4  A    between atoms: _6  and  _7
REMARK    5  A    between atoms: _10  and  _12
REMARK    6  A    between atoms: _12  and  _13
REMARK    7  A    between atoms: _12  and  _15
REMARK    8  A    between atoms: _19  and  _20
REMARK    9  A    between atoms: _25  and  _27
REMARK   10  A    between atoms: _27  and  _28
REMARK   11  A    between atoms: _27  and  _30
REMARK   12  A    between atoms: _30  and  _31
REMARK   13  A    between atoms: _34  and  _36
REMARK   14  A    between atoms: _36  and  _37
REMARK   15  A    between atoms: _36  and  _39
REMARK   16  A    between atoms: _39  and  _40
REMARK   17  A    between atoms: _40  and  _41
REMARK   18  A    between atoms: _43  and  _45
REMARK   19  A    between atoms: _45  and  _46
REMARK   20  A    between atoms: _48  and  _50
REMARK   21  A    between atoms: _50  and  _51
REMARK   22  A    between atoms: _54  and  _56
REMARK   23  A    between atoms: _56  and  _57
REMARK   24  A    between atoms: _56  and  _59
REMARK   25  A    between atoms: _59  and  _60
REMARK   26  A    between atoms: _63  and  _65
REMARK   27  A    between atoms: _65  and  _66
REMARK   28  A    between atoms: _65  and  _68
REMARK   29  A    between atoms: _68  and  _69
REMARK   30  A    between atoms: _74  and  _76
REMARK   31  A    between atoms: _76  and  _77
REMARK   32  A    between atoms: _76  and  _79
REMARK   33  A    between atoms: _79  and  _80
REMARK   34  A    between atoms: _80  and  _81
REMARK   35  A    between atoms: _84  and  _86
REMARK   36  A    between atoms: _86  and  _87
REMARK   37  A    between atoms: _89  and  _91
REMARK   38  A    between atoms: _91  and  _92
REMARK   39  A    between atoms: _91  and  _94
REMARK   40  A    between atoms: _94  and  _95
REMARK   41  A    between atoms: _100  and  _102
REMARK   42  A    between atoms: _102  and  _103
REMARK   43  A    between atoms: _102  and  _105
REMARK   44  A    between atoms: _105  and  _106
REMARK   45  A    between atoms: _109  and  _111
REMARK   46  A    between atoms: _111  and  _112
REMARK   47  A    between atoms: _115  and  _117
REMARK   48  A    between atoms: _117  and  _118
REMARK   49  A    between atoms: _117  and  _120
REMARK   50  A    between atoms: _120  and  _121
REMARK   51  A    between atoms: _124  and  _126
REMARK   52  A    between atoms: _126  and  _127
REMARK   53  A    between atoms: _126  and  _129
REMARK   54  A    between atoms: _132  and  _134
REMARK   55  A    between atoms: _134  and  _135
REMARK   56  A    between atoms: _138  and  _140
REMARK   57  A    between atoms: _140  and  _141
REMARK   58  A    between atoms: _140  and  _143
REMARK   59  A    between atoms: _143  and  _144
REMARK   60  A    between atoms: _146  and  _148
REMARK   61  A    between atoms: _148  and  _149
REMARK   62  A    between atoms: _148  and  _151
REMARK   63  A    between atoms: _151  and  _152
REMARK   64  A    between atoms: _155  and  _157
REMARK   65  A    between atoms: _157  and  _158
REMARK   66  A    between atoms: _157  and  _160
REMARK   67  A    between atoms: _160  and  _161
REMARK   68  A    between atoms: _167  and  _169
REMARK   69  A    between atoms: _169  and  _170
REMARK   70  A    between atoms: _169  and  _172
REMARK   71  A    between atoms: _175  and  _177
REMARK   72  A    between atoms: _177  and  _178
REMARK   73  A    between atoms: _177  and  _180
REMARK   74  A    between atoms: _180  and  _181
REMARK   75  A    between atoms: _186  and  _188
REMARK   76  A    between atoms: _188  and  _189
REMARK   77  A    between atoms: _188  and  _191
REMARK   78  A    between atoms: _191  and  _192
REMARK   79  A    between atoms: _192  and  _193
REMARK   80  A    between atoms: _198  and  _200
REMARK   81  A    between atoms: _200  and  _201
REMARK   82  A    between atoms: _200  and  _203
REMARK   83  A    between atoms: _203  and  _204
REMARK   84  A    between atoms: _209  and  _210
REMARK   85  A    between atoms: _213  and  _214
REMARK   86  A    between atoms: _219  and  _221
REMARK   87  A    between atoms: _221  and  _222
REMARK   88  A    between atoms: _224  and  _226
REMARK   89  A    between atoms: _226  and  _227
REMARK   90  A    between atoms: _226  and  _229
REMARK   91  A    between atoms: _232  and  _234
REMARK   92  A    between atoms: _234  and  _235
REMARK   93  A    between atoms: _234  and  _237
REMARK   94  A    between atoms: _237  and  _238
REMARK   95  A    between atoms: _241  and  _243
REMARK   96  A    between atoms: _243  and  _244
REMARK   97  A    between atoms: _243  and  _246
REMARK   98  A    between atoms: _249  and  _251
REMARK   99  A    between atoms: _251  and  _252
REMARK  100  A    between atoms: _251  and  _254
REMARK  101  A    between atoms: _257  and  _259
REMARK  102  A    between atoms: _259  and  _260
REMARK  103  A    between atoms: _259  and  _262
REMARK  104  A    between atoms: _262  and  _263
REMARK  105  A    between atoms: _266  and  _268
REMARK  106  A    between atoms: _268  and  _269
REMARK  107  A    between atoms: _268  and  _271
REMARK  108  A    between atoms: _271  and  _272
REMARK  109  A    between atoms: _275  and  _277
REMARK  110  A    between atoms: _277  and  _278
REMARK  111  A    between atoms: _277  and  _280
REMARK  112  A    between atoms: _283  and  _285
REMARK  113  A    between atoms: _285  and  _286
REMARK  114  A    between atoms: _285  and  _288
REMARK  115  A    between atoms: _288  and  _289
REMARK  116  A    between atoms: _295  and  _297
REMARK  117  A    between atoms: _297  and  _298
REMARK  118  A    between atoms: _297  and  _300
REMARK  119  A    between atoms: _300  and  _301
REMARK  120  A    between atoms: _307  and  _309
REMARK  121  A    between atoms: _309  and  _310
REMARK  122  A    between atoms: _312  and  _314
REMARK  123  A    between atoms: _314  and  _315
REMARK  124  A    between atoms: _314  and  _317
REMARK  125  A    between atoms: _317  and  _318
REMARK  126  A    between atoms: _318  and  _319
REMARK  127  A    between atoms: _322  and  _324
REMARK  128  A    between atoms: _324  and  _325
REMARK  129  A    between atoms: _324  and  _327
REMARK  130  A    between atoms: _327  and  _328
REMARK  131  A    between atoms: _328  and  _329
REMARK  132  A    between atoms: _329  and  _330
REMARK  133  A    between atoms: _330  and  _331
REMARK  134  A    between atoms: _335  and  _337
REMARK  135  A    between atoms: _337  and  _338
REMARK  136  A    between atoms: _337  and  _340
REMARK  137  A    between atoms: _340  and  _341
REMARK  138  A    between atoms: _344  and  _346
REMARK  139  A    between atoms: _346  and  _347
REMARK  140  A    between atoms: _346  and  _349
REMARK  141  A    between atoms: _349  and  _350
REMARK  142  A    between atoms: _350  and  _351
REMARK  143  A    between atoms: _356  and  _358
REMARK  144  A    between atoms: _358  and  _359
REMARK  145  A    between atoms: _358  and  _361
REMARK  146  A    between atoms: _361  and  _362
REMARK  147  A    between atoms: _365  and  _367
REMARK  148  A    between atoms: _367  and  _368
REMARK  149  A    between atoms: _367  and  _370
REMARK  150  A    between atoms: _370  and  _371
REMARK  151  A    between atoms: _374  and  _376
REMARK  152  A    between atoms: _376  and  _377
REMARK  153  A    between atoms: _379  and  _381
REMARK  154  A    between atoms: _381  and  _382
REMARK  155  A    between atoms: _381  and  _384
REMARK  156  A    between atoms: _388  and  _389
REMARK  157  A    between atoms: _394  and  _396
REMARK  158  A    between atoms: _396  and  _397
REMARK  159  A    between atoms: _396  and  _399
REMARK  160  A    between atoms: _399  and  _400
REMARK  161  A    between atoms: _403  and  _405
REMARK  162  A    between atoms: _405  and  _406
REMARK  163  A    between atoms: _405  and  _408
REMARK  164  A    between atoms: _411  and  _413
REMARK  165  A    between atoms: _413  and  _414
REMARK  166  A    between atoms: _413  and  _416
REMARK  167  A    between atoms: _416  and  _417
REMARK  168  A    between atoms: _417  and  _418
REMARK  169  A    between atoms: _418  and  _419
REMARK  170  A    between atoms: _428  and  _430
REMARK  171  A    between atoms: _430  and  _431
REMARK  172  A    between atoms: _430  and  _433
REMARK  173  A    between atoms: _433  and  _434
REMARK  174  A    between atoms: _437  and  _439
REMARK  175  A    between atoms: _439  and  _440
REMARK  176  A    between atoms: _443  and  _445
REMARK  177  A    between atoms: _445  and  _446
REMARK  178  A    between atoms: _445  and  _448
REMARK  179  A    between atoms: _448  and  _449
REMARK  180  A    between atoms: _449  and  _450
REMARK  181  A    between atoms: _452  and  _454
REMARK  182  A    between atoms: _454  and  _455
REMARK  183  A    between atoms: _454  and  _457
REMARK  184  A    between atoms: _457  and  _458
REMARK  185  A    between atoms: _460  and  _462
REMARK  186  A    between atoms: _462  and  _463
REMARK  187  A    between atoms: _462  and  _465
REMARK  188  A    between atoms: _465  and  _466
REMARK  189  A    between atoms: _468  and  _470
REMARK  190  A    between atoms: _470  and  _471
REMARK  191  A    between atoms: _470  and  _473
REMARK  192  A    between atoms: _473  and  _474
REMARK  193  A    between atoms: _474  and  _475
REMARK  194  A    between atoms: _475  and  _476
REMARK  195  A    between atoms: _485  and  _487
REMARK  196  A    between atoms: _487  and  _488
REMARK  197  A    between atoms: _487  and  _490
REMARK  198  A    between atoms: _490  and  _491
REMARK  199  A    between atoms: _496  and  _498
REMARK  200  A    between atoms: _498  and  _499
REMARK  201  A    between atoms: _498  and  _501
REMARK  202  A    between atoms: _501  and  _502
REMARK  203  A    between atoms: _502  and  _503
REMARK  204  A    between atoms: _503  and  _504
REMARK  205  A    between atoms: _513  and  _515
REMARK  206  A    between atoms: _515  and  _516
REMARK  207  A    between atoms: _515  and  _518
REMARK  208  A    between atoms: _518  and  _519
REMARK  209  A    between atoms: _519  and  _520
REMARK  210  A    between atoms: _520  and  _521
REMARK  211  A    between atoms: _530  and  _532
REMARK  212  A    between atoms: _532  and  _533
REMARK  213  A    between atoms: _532  and  _535
REMARK  214  A    between atoms: _535  and  _536
REMARK  215  A    between atoms: _539  and  _541
REMARK  216  A    between atoms: _541  and  _542
REMARK  217  A    between atoms: _541  and  _544
REMARK  218  A    between atoms: _544  and  _545
REMARK  219  A    between atoms: _548  and  _550
REMARK  220  A    between atoms: _550  and  _551
REMARK  221  A    between atoms: _550  and  _553
REMARK  222  A    between atoms: _553  and  _554
REMARK                            x       y       z     vdW  Elec       q    Type
REMARK                         _______ _______ _______ _____ _____    ______ ____
ROOT
ATOM      1  CB  ASN A   1      18.605  -0.275  -5.836  0.00  0.00    +0.110 C 
ENDROOT
BRANCH   1   2
ATOM      2  CG  ASN A   1      17.355   0.519  -5.454  0.00  0.00    +0.221 C 
ATOM      3  ND2 ASN A   1      17.528   1.567  -4.679  0.00  0.00    -0.329 N 
ATOM      4 HD21 ASN A   1      18.482   1.821  -4.353  0.00  0.00    +0.145 HD
ATOM      5 HD22 ASN A   1      16.710   2.142  -4.392  0.00  0.00    +0.145 HD
ATOM      6  OD1 ASN A   1      16.245   0.168  -5.873  0.00  0.00    -0.275 OA
ENDBRANCH   1   2
BRANCH   1   7
ATOM      7  CA  ASN A   1      19.169   0.184  -7.177  0.00  0.00    +0.142 C 
BRANCH   7   8
ATOM      8  N   ASN A   1      19.675   1.552  -7.036  0.00  0.00    -0.239 NA
ATOM      9  H   ASN A   1      19.080   2.355  -7.324  0.00  0.00    +0.142 HD
ENDBRANCH   7   8
BRANCH   7  10
ATOM     10  C   ASN A   1      18.090   0.118  -8.254  0.00  0.00    +0.225 C 
ATOM     11  O   ASN A   1      17.484   1.138  -8.601  0.00  0.00    -0.287 OA
ENDBRANCH   7  10
ENDBRANCH   1   7
TORSDOF 4
REMARK  Name = ../refined-set-2016/3ivx/3ivx_pocket.pdb
REMARK  222 active torsions:
REMARK  status: ('A' for Active; 'I' for Inactive)
REMARK    1  A    between atoms: _1  and  _3
REMARK    2  A    between atoms: _3  and  _4
REMARK    3  A    between atoms: _3  and  _6
REMARK    4  A    between atoms: _6  and  _7
REMARK    5  A    between atoms: _10  and  _12
REMARK    6  A    between atoms: _12  and  _13
REMARK    7  A    between atoms: _12  and  _15
REMARK    8  A    between atoms: _19  and  _20
REMARK    9  A    between atoms: _25  and  _27
REMARK   10  A    between atoms: _27  and  _28
REMARK   11  A    between atoms: _27  and  _30
REMARK   12  A    between atoms: _30  and  _31
REMARK   13  A    between atoms: _34  and  _36
REMARK   14  A    between atoms: _36  and  _37
REMARK   15  A    between atoms: _36  and  _39
REMARK   16  A    between atoms: _39  and  _40
REMARK   17  A    between atoms: _40  and  _41
REMARK   18  A    between atoms: _43  and  _45
REMARK   19  A    between atoms: _45  and  _46
REMARK   20  A    between atoms: _48  and  _50
REMARK   21  A    between atoms: _50  and  _51
REMARK   22  A    between atoms: _54  and  _56
REMARK   23  A    between atoms: _56  and  _57
REMARK   24  A    between atoms: _56  and  _59
REMARK   25  A    between atoms: _59  and  _60
REMARK   26  A    between atoms: _63  and  _65
REMARK   27  A    between atoms: _65  and  _66
REMARK   28  A    between atoms: _65  and  _68
REMARK   29  A    between atoms: _68  and  _69
REMARK   30  A    between atoms: _74  and  _76
REMARK   31  A    between atoms: _76  and  _77
REMARK   32  A    between atoms: _76  and  _79
REMARK   33  A    between atoms: _79  and  _80
REMARK   34  A    between atoms: _80  and  _81
REMARK   35  A    between atoms: _84  and  _86
REMARK   36  A    between atoms: _86  and  _87
REMARK   37  A    between atoms: _89  and  _91
REMARK   38  A    between atoms: _91  and  _92
REMARK   39  A    between atoms: _91  and  _94
REMARK   40  A    between atoms: _94  and  _95
REMARK   41  A    between atoms: _100  and  _102
REMARK   42  A    between atoms: _102  and  _103
REMARK   43  A    between atoms: _102  and  _105
REMARK   44  A    between atoms: _105  and  _106
REMARK   45  A    between atoms: _109  and  _111
REMARK   46  A    between atoms: _111  and  _112
REMARK   47  A    between atoms: _115  and  _117
REMARK   48  A    between atoms: _117  and  _118
REMARK   49  A    between atoms: _117  and  _120
REMARK   50  A    between atoms: _120  and  _121
REMARK   51  A    between atoms: _124  and  _126
REMARK   52  A    between atoms: _126  and  _127
REMARK   53  A    between atoms: _126  and  _129
REMARK   54  A    between atoms: _132  and  _134
REMARK   55  A    between atoms: _134  and  _135
REMARK   56  A    between atoms: _138  and  _140
REMARK   57  A    between atoms: _140  and  _141
REMARK   58  A    between atoms: _140  and  _143
REMARK   59  A    between atoms: _143  and  _144
REMARK   60  A    between atoms: _146  and  _148
REMARK   61  A    between atoms: _148  and  _149
REMARK   62  A    between atoms: _148  and  _151
REMARK   63  A    between atoms: _151  and  _152
REMARK   64  A    between atoms: _155  and  _157
REMARK   65  A    between atoms: _157  and  _158
REMARK   66  A    between atoms: _157  and  _160
REMARK   67  A    between atoms: _160  and  _161
REMARK   68  A    between atoms: _167  and  _169
REMARK   69  A    between atoms: _169  and  _170
REMARK   70  A    between atoms: _169  and  _172
REMARK   71  A    between atoms: _175  and  _177
REMARK   72  A    between atoms: _177  and  _178
REMARK   73  A    between atoms: _177  and  _180
REMARK   74  A    between atoms: _180  and  _181
REMARK   75  A    between atoms: _186  and  _188
REMARK   76  A    between atoms: _188  and  _189
REMARK   77  A    between atoms: _188  and  _191
REMARK   78  A    between atoms: _191  and  _192
REMARK   79  A    between atoms: _192  and  _193
REMARK   80  A    between atoms: _198  and  _200
REMARK   81  A    between atoms: _200  and  _201
REMARK   82  A    between atoms: _200  and  _203
REMARK   83  A    between atoms: _203  and  _204
REMARK   84  A    between atoms: _209  and  _210
REMARK   85  A    between atoms: _213  and  _214
REMARK   86  A    between atoms: _219  and  _221
REMARK   87  A    between atoms: _221  and  _222
REMARK   88  A    between atoms: _224  and  _226
REMARK   89  A    between atoms: _226  and  _227
REMARK   90  A    between atoms: _226  and  _229
REMARK   91  A    between atoms: _232  and  _234
REMARK   92  A    between atoms: _234  and  _235
REMARK   93  A    between atoms: _234  and  _237
REMARK   94  A    between atoms: _237  and  _238
REMARK   95  A    between atoms: _241  and  _243
REMARK   96  A    between atoms: _243  and  _244
REMARK   97  A    between atoms: _243  and  _246
REMARK   98  A    between atoms: _249  and  _251
REMARK   99  A    between atoms: _251  and  _252
REMARK  100  A    between atoms: _251  and  _254
REMARK  101  A    between atoms: _257  and  _259
REMARK  102  A    between atoms: _259  and  _260
REMARK  103  A    between atoms: _259  and  _262
REMARK  104  A    between atoms: _262  and  _263
REMARK  105  A    between atoms: _266  and  _268
REMARK  106  A    between atoms: _268  and  _269
REMARK  107  A    between atoms: _268  and  _271
REMARK  108  A    between atoms: _271  and  _272
REMARK  109  A    between atoms: _275  and  _277
REMARK  110  A    between atoms: _277  and  _278
REMARK  111  A    between atoms: _277  and  _280
REMARK  112  A    between atoms: _283  and  _285
REMARK  113  A    between atoms: _285  and  _286
REMARK  114  A    between atoms: _285  and  _288
REMARK  115  A    between atoms: _288  and  _289
REMARK  116  A    between atoms: _295  and  _297
REMARK  117  A    between atoms: _297  and  _298
REMARK  118  A    between atoms: _297  and  _300
REMARK  119  A    between atoms: _300  and  _301
REMARK  120  A    between atoms: _307  and  _309
REMARK  121  A    between atoms: _309  and  _310
REMARK  122  A    between atoms: _312  and  _314
REMARK  123  A    between atoms: _314  and  _315
REMARK  124  A    between atoms: _314  and  _317
REMARK  125  A    between atoms: _317  and  _318
REMARK  126  A    between atoms: _318  and  _319
REMARK  127  A    between atoms: _322  and  _324
REMARK  128  A    between atoms: _324  and  _325
REMARK  129  A    between atoms: _324  and  _327
REMARK  130  A    between atoms: _327  and  _328
REMARK  131  A    between atoms: _328  and  _329
REMARK  132  A    between atoms: _329  and  _330
REMARK  133  A    between atoms: _330  and  _331
REMARK  134  A    between atoms: _335  and  _337
REMARK  135  A    between atoms: _337  and  _338
REMARK  136  A    between atoms: _337  and  _340
REMARK  137  A    between atoms: _340  and  _341
REMARK  138  A    between atoms: _344  and  _346
REMARK  139  A    between atoms: _346  and  _347
REMARK  140  A    between atoms: _346  and  _349
REMARK  141  A    between atoms: _349  and  _350
REMARK  142  A    between atoms: _350  and  _351
REMARK  143  A    between atoms: _356  and  _358
REMARK  144  A    between atoms: _358  and  _359
REMARK  145  A    between atoms: _358  and  _361
REMARK  146  A    between atoms: _361  and  _362
REMARK  147  A    between atoms: _365  and  _367
REMARK  148  A    between atoms: _367  and  _368
REMARK  149  A    between atoms: _367  and  _370
REMARK  150  A    between atoms: _370  and  _371
REMARK  151  A    between atoms: _374  and  _376
REMARK  152  A    between atoms: _376  and  _377
REMARK  153  A    between atoms: _379  and  _381
REMARK  154  A    between atoms: _381  and  _382
REMARK  155  A    between atoms: _381  and  _384
REMARK  156  A    between atoms: _388  and  _389
REMARK  157  A    between atoms: _394  and  _396
REMARK  158  A    between atoms: _396  and  _397
REMARK  159  A    between atoms: _396  and  _399
REMARK  160  A    between atoms: _399  and  _400
REMARK  161  A    between atoms: _403  and  _405
REMARK  162  A    between atoms: _405  and  _406
REMARK  163  A    between atoms: _405  and  _408
REMARK  164  A    between atoms: _411  and  _413
REMARK  165  A    between atoms: _413  and  _414
REMARK  166  A    between atoms: _413  and  _416
REMARK  167  A    between atoms: _416  and  _417
REMARK  168  A    between atoms: _417  and  _418
REMARK  169  A    between atoms: _418  and  _419
REMARK  170  A    between atoms: _428  and  _430
REMARK  171  A    between atoms: _430  and  _431
REMARK  172  A    between atoms: _430  and  _433
REMARK  173  A    between atoms: _433  and  _434
REMARK  174  A    between atoms: _437  and  _439
REMARK  175  A    between atoms: _439  and  _440
REMARK  176  A    between atoms: _443  and  _445
REMARK  177  A    between atoms: _445  and  _446
REMARK  178  A    between atoms: _445  and  _448
REMARK  179  A    between atoms: _448  and  _449
REMARK  180  A    between atoms: _449  and  _450
REMARK  181  A    between atoms: _452  and  _454
REMARK  182  A    between atoms: _454  and  _455
REMARK  183  A    between atoms: _454  and  _457
REMARK  184  A    between atoms: _457  and  _458
REMARK  185  A    between atoms: _460  and  _462
REMARK  186  A    between atoms: _462  and  _463
REMARK  187  A    between atoms: _462  and  _465
REMARK  188  A    between atoms: _465  and  _466
REMARK  189  A    between atoms: _468  and  _470
REMARK  190  A    between atoms: _470  and  _471
REMARK  191  A    between atoms: _470  and  _473
REMARK  192  A    between atoms: _473  and  _474
REMARK  193  A    between atoms: _474  and  _475
REMARK  194  A    between atoms: _475  and  _476
REMARK  195  A    between atoms: _485  and  _487
REMARK  196  A    between atoms: _487  and  _488
REMARK  197  A    between atoms: _487  and  _490
REMARK  198  A    between atoms: _490  and  _491
REMARK  199  A    between atoms: _496  and  _498
REMARK  200  A    between atoms: _498  and  _499
REMARK  201  A    between atoms: _498  and  _501
REMARK  202  A    between atoms: _501  and  _502
REMARK  203  A    between atoms: _502  and  _503
REMARK  204  A    between atoms: _503  and  _504
REMARK  205  A    between atoms: _513  and  _515
REMARK  206  A    between atoms: _515  and  _516
REMARK  207  A    between atoms: _515  and  _518
REMARK  208  A    between atoms: _518  and  _519
REMARK  209  A    between atoms: _519  and  _520
REMARK  210  A    between atoms: _520  and  _521
REMARK  211  A    between atoms: _530  and  _532
REMARK  212  A    between atoms: _532  and  _533
REMARK  213  A    between atoms: _532  and  _535
REMARK  214  A    between atoms: _535  and  _536
REMARK  215  A    between atoms: _539  and  _541
REMARK  216  A    between atoms: _541  and  _542
REMARK  217  A    between atoms: _541  and  _544
REMARK  218  A    between atoms: _544  and  _545
REMARK  219  A    between atoms: _548  and  _550
REMARK  220  A    between atoms: _550  and  _551
REMARK  221  A    between atoms: _550  and  _553
REMARK  222  A    between atoms: _553  and  _554
REMARK                            x       y       z     vdW  Elec       q    Type
REMARK                         _______ _______ _______ _____ _____    ______ ____
ROOT
ATOM      1  O   HOH     1      11.834  13.303   9.744  0.00  0.00    +0.000 OA
ENDROOT
TORSDOF 0
REMARK  Name = ../refined-set-2016/3ivx/3ivx_pocket.pdb
REMARK  222 active torsions:
REMARK  status: ('A' for Active; 'I' for Inactive)
REMARK    1  A    between atoms: _1  and  _3
REMARK    2  A    between atoms: _3  and  _4
REMARK    3  A    between atoms: _3  and  _6
REMARK    4  A    between atoms: _6  and  _7
REMARK    5  A    between atoms: _10  and  _12
REMARK    6  A    between atoms: _12  and  _13
REMARK    7  A    between atoms: _12  and  _15
REMARK    8  A    between atoms: _19  and  _20
REMARK    9  A    between atoms: _25  and  _27
REMARK   10  A    between atoms: _27  and  _28
REMARK   11  A    between atoms: _27  and  _30
REMARK   12  A    between atoms: _30  and  _31
REMARK   13  A    between atoms: _34  and  _36
REMARK   14  A    between atoms: _36  and  _37
REMARK   15  A    between atoms: _36  and  _39
REMARK   16  A    between atoms: _39  and  _40
REMARK   17  A    between atoms: _40  and  _41
REMARK   18  A    between atoms: _43  and  _45
REMARK   19  A    between atoms: _45  and  _46
REMARK   20  A    between atoms: _48  and  _50
REMARK   21  A    between atoms: _50  and  _51
REMARK   22  A    between atoms: _54  and  _56
REMARK   23  A    between atoms: _56  and  _57
REMARK   24  A    between atoms: _56  and  _59
REMARK   25  A    between atoms: _59  and  _60
REMARK   26  A    between atoms: _63  and  _65
REMARK   27  A    between atoms: _65  and  _66
REMARK   28  A    between atoms: _65  and  _68
REMARK   29  A    between atoms: _68  and  _69
REMARK   30  A    between atoms: _74  and  _76
REMARK   31  A    between atoms: _76  and  _77
REMARK   32  A    between atoms: _76  and  _79
REMARK   33  A    between atoms: _79  and  _80
REMARK   34  A    between atoms: _80  and  _81
REMARK   35  A    between atoms: _84  and  _86
REMARK   36  A    between atoms: _86  and  _87
REMARK   37  A    between atoms: _89  and  _91
REMARK   38  A    between atoms: _91  and  _92
REMARK   39  A    between atoms: _91  and  _94
REMARK   40  A    between atoms: _94  and  _95
REMARK   41  A    between atoms: _100  and  _102
REMARK   42  A    between atoms: _102  and  _103
REMARK   43  A    between atoms: _102  and  _105
REMARK   44  A    between atoms: _105  and  _106
REMARK   45  A    between atoms: _109  and  _111
REMARK   46  A    between atoms: _111  and  _112
REMARK   47  A    between atoms: _115  and  _117
REMARK   48  A    between atoms: _117  and  _118
REMARK   49  A    between atoms: _117  and  _120
REMARK   50  A    between atoms: _120  and  _121
REMARK   51  A    between atoms: _124  and  _126
REMARK   52  A    between atoms: _126  and  _127
REMARK   53  A    between atoms: _126  and  _129
REMARK   54  A    between atoms: _132  and  _134
REMARK   55  A    between atoms: _134  and  _135
REMARK   56  A    between atoms: _138  and  _140
REMARK   57  A    between atoms: _140  and  _141
REMARK   58  A    between atoms: _140  and  _143
REMARK   59  A    between atoms: _143  and  _144
REMARK   60  A    between atoms: _146  and  _148
REMARK   61  A    between atoms: _148  and  _149
REMARK   62  A    between atoms: _148  and  _151
REMARK   63  A    between atoms: _151  and  _152
REMARK   64  A    between atoms: _155  and  _157
REMARK   65  A    between atoms: _157  and  _158
REMARK   66  A    between atoms: _157  and  _160
REMARK   67  A    between atoms: _160  and  _161
REMARK   68  A    between atoms: _167  and  _169
REMARK   69  A    between atoms: _169  and  _170
REMARK   70  A    between atoms: _169  and  _172
REMARK   71  A    between atoms: _175  and  _177
REMARK   72  A    between atoms: _177  and  _178
REMARK   73  A    between atoms: _177  and  _180
REMARK   74  A    between atoms: _180  and  _181
REMARK   75  A    between atoms: _186  and  _188
REMARK   76  A    between atoms: _188  and  _189
REMARK   77  A    between atoms: _188  and  _191
REMARK   78  A    between atoms: _191  and  _192
REMARK   79  A    between atoms: _192  and  _193
REMARK   80  A    between atoms: _198  and  _200
REMARK   81  A    between atoms: _200  and  _201
REMARK   82  A    between atoms: _200  and  _203
REMARK   83  A    between atoms: _203  and  _204
REMARK   84  A    between atoms: _209  and  _210
REMARK   85  A    between atoms: _213  and  _214
REMARK   86  A    between atoms: _219  and  _221
REMARK   87  A    between atoms: _221  and  _222
REMARK   88  A    between atoms: _224  and  _226
REMARK   89  A    between atoms: _226  and  _227
REMARK   90  A    between atoms: _226  and  _229
REMARK   91  A    between atoms: _232  and  _234
REMARK   92  A    between atoms: _234  and  _235
REMARK   93  A    between atoms: _234  and  _237
REMARK   94  A    between atoms: _237  and  _238
REMARK   95  A    between atoms: _241  and  _243
REMARK   96  A    between atoms: _243  and  _244
REMARK   97  A    between atoms: _243  and  _246
REMARK   98  A    between atoms: _249  and  _251
REMARK   99  A    between atoms: _251  and  _252
REMARK  100  A    between atoms: _251  and  _254
REMARK  101  A    between atoms: _257  and  _259
REMARK  102  A    between atoms: _259  and  _260
REMARK  103  A    between atoms: _259  and  _262
REMARK  104  A    between atoms: _262  and  _263
REMARK  105  A    between atoms: _266  and  _268
REMARK  106  A    between atoms: _268  and  _269
REMARK  107  A    between atoms: _268  and  _271
REMARK  108  A    between atoms: _271  and  _272
REMARK  109  A    between atoms: _275  and  _277
REMARK  110  A    between atoms: _277  and  _278
REMARK  111  A    between atoms: _277  and  _280
REMARK  112  A    between atoms: _283  and  _285
REMARK  113  A    between atoms: _285  and  _286
REMARK  114  A    between atoms: _285  and  _288
REMARK  115  A    between atoms: _288  and  _289
REMARK  116  A    between atoms: _295  and  _297
REMARK  117  A    between atoms: _297  and  _298
REMARK  118  A    between atoms: _297  and  _300
REMARK  119  A    between atoms: _300  and  _301
REMARK  120  A    between atoms: _307  and  _309
REMARK  121  A    between atoms: _309  and  _310
REMARK  122  A    between atoms: _312  and  _314
REMARK  123  A    between atoms: _314  and  _315
REMARK  124  A    between atoms: _314  and  _317
REMARK  125  A    between atoms: _317  and  _318
REMARK  126  A    between atoms: _318  and  _319
REMARK  127  A    between atoms: _322  and  _324
REMARK  128  A    between atoms: _324  and  _325
REMARK  129  A    between atoms: _324  and  _327
REMARK  130  A    between atoms: _327  and  _328
REMARK  131  A    between atoms: _328  and  _329
REMARK  132  A    between atoms: _329  and  _330
REMARK  133  A    between atoms: _330  and  _331
REMARK  134  A    between atoms: _335  and  _337
REMARK  135  A    between atoms: _337  and  _338
REMARK  136  A    between atoms: _337  and  _340
REMARK  137  A    between atoms: _340  and  _341
REMARK  138  A    between atoms: _344  and  _346
REMARK  139  A    between atoms: _346  and  _347
REMARK  140  A    between atoms: _346  and  _349
REMARK  141  A    between atoms: _349  and  _350
REMARK  142  A    between atoms: _350  and  _351
REMARK  143  A    between atoms: _356  and  _358
REMARK  144  A    between atoms: _358  and  _359
REMARK  145  A    between atoms: _358  and  _361
REMARK  146  A    between atoms: _361  and  _362
REMARK  147  A    between atoms: _365  and  _367
REMARK  148  A    between atoms: _367  and  _368
REMARK  149  A    between atoms: _367  and  _370
REMARK  150  A    between atoms: _370  and  _371
REMARK  151  A    between atoms: _374  and  _376
REMARK  152  A    between atoms: _376  and  _377
REMARK  153  A    between atoms: _379  and  _381
REMARK  154  A    between atoms: _381  and  _382
REMARK  155  A    between atoms: _381  and  _384
REMARK  156  A    between atoms: _388  and  _389
REMARK  157  A    between atoms: _394  and  _396
REMARK  158  A    between atoms: _396  and  _397
REMARK  159  A    between atoms: _396  and  _399
REMARK  160  A    between atoms: _399  and  _400
REMARK  161  A    between atoms: _403  and  _405
REMARK  162  A    between atoms: _405  and  _406
REMARK  163  A    between atoms: _405  and  _408
REMARK  164  A    between atoms: _411  and  _413
REMARK  165  A    between atoms: _413  and  _414
REMARK  166  A    between atoms: _413  and  _416
REMARK  167  A    between atoms: _416  and  _417
REMARK  168  A    between atoms: _417  and  _418
REMARK  169  A    between atoms: _418  and  _419
REMARK  170  A    between atoms: _428  and  _430
REMARK  171  A    between atoms: _430  and  _431
REMARK  172  A    between atoms: _430  and  _433
REMARK  173  A    between atoms: _433  and  _434
REMARK  174  A    between atoms: _437  and  _439
REMARK  175  A    between atoms: _439  and  _440
REMARK  176  A    between atoms: _443  and  _445
REMARK  177  A    between atoms: _445  and  _446
REMARK  178  A    between atoms: _445  and  _448
REMARK  179  A    between atoms: _448  and  _449
REMARK  180  A    between atoms: _449  and  _450
REMARK  181  A    between atoms: _452  and  _454
REMARK  182  A    between atoms: _454  and  _455
REMARK  183  A    between atoms: _454  and  _457
REMARK  184  A    between atoms: _457  and  _458
REMARK  185  A    between atoms: _460  and  _462
REMARK  186  A    between atoms: _462  and  _463
REMARK  187  A    between atoms: _462  and  _465
REMARK  188  A    between atoms: _465  and  _466
REMARK  189  A    between atoms: _468  and  _470
REMARK  190  A    between atoms: _470  and  _471
REMARK  191  A    between atoms: _470  and  _473
REMARK  192  A    between atoms: _473  and  _474
REMARK  193  A    between atoms: _474  and  _475
REMARK  194  A    between atoms: _475  and  _476
REMARK  195  A    between atoms: _485  and  _487
REMARK  196  A    between atoms: _487  and  _488
REMARK  197  A    between atoms: _487  and  _490
REMARK  198  A    between atoms: _490  and  _491
REMARK  199  A    between atoms: _496  and  _498
REMARK  200  A    between atoms: _498  and  _499
REMARK  201  A    between atoms: _498  and  _501
REMARK  202  A    between atoms: _501  and  _502
REMARK  203  A    between atoms: _502  and  _503
REMARK  204  A    between atoms: _503  and  _504
REMARK  205  A    between atoms: _513  and  _515
REMARK  206  A    between atoms: _515  and  _516
REMARK  207  A    between atoms: _515  and  _518
REMARK  208  A    between atoms: _518  and  _519
REMARK  209  A    between atoms: _519  and  _520
REMARK  210  A    between atoms: _520  and  _521
REMARK  211  A    between atoms: _530  and  _532
REMARK  212  A    between atoms: _532  and  _533
REMARK  213  A    between atoms: _532  and  _535
REMARK  214  A    between atoms: _535  and  _536
REMARK  215  A    between atoms: _539  and  _541
REMARK  216  A    between atoms: _541  and  _542
REMARK  217  A    between atoms: _541  and  _544
REMARK  218  A    between atoms: _544  and  _545
REMARK  219  A    between atoms: _548  and  _550
REMARK  220  A    between atoms: _550  and  _551
REMARK  221  A    between atoms: _550  and  _553
REMARK  222  A    between atoms: _553  and  _554
REMARK                            x       y       z     vdW  Elec       q    Type
REMARK                         _______ _______ _______ _____ _____    ______ ____
ROOT
ATOM      1  O   HOH     1      13.816   4.370   1.842  0.00  0.00    +0.000 OA
ENDROOT
TORSDOF 0
REMARK  Name = ../refined-set-2016/3ivx/3ivx_pocket.pdb
REMARK  222 active torsions:
REMARK  status: ('A' for Active; 'I' for Inactive)
REMARK    1  A    between atoms: _1  and  _3
REMARK    2  A    between atoms: _3  and  _4
REMARK    3  A    between atoms: _3  and  _6
REMARK    4  A    between atoms: _6  and  _7
REMARK    5  A    between atoms: _10  and  _12
REMARK    6  A    between atoms: _12  and  _13
REMARK    7  A    between atoms: _12  and  _15
REMARK    8  A    between atoms: _19  and  _20
REMARK    9  A    between atoms: _25  and  _27
REMARK   10  A    between atoms: _27  and  _28
REMARK   11  A    between atoms: _27  and  _30
REMARK   12  A    between atoms: _30  and  _31
REMARK   13  A    between atoms: _34  and  _36
REMARK   14  A    between atoms: _36  and  _37
REMARK   15  A    between atoms: _36  and  _39
REMARK   16  A    between atoms: _39  and  _40
REMARK   17  A    between atoms: _40  and  _41
REMARK   18  A    between atoms: _43  and  _45
REMARK   19  A    between atoms: _45  and  _46
REMARK   20  A    between atoms: _48  and  _50
REMARK   21  A    between atoms: _50  and  _51
REMARK   22  A    between atoms: _54  and  _56
REMARK   23  A    between atoms: _56  and  _57
REMARK   24  A    between atoms: _56  and  _59
REMARK   25  A    between atoms: _59  and  _60
REMARK   26  A    between atoms: _63  and  _65
REMARK   27  A    between atoms: _65  and  _66
REMARK   28  A    between atoms: _65  and  _68
REMARK   29  A    between atoms: _68  and  _69
REMARK   30  A    between atoms: _74  and  _76
REMARK   31  A    between atoms: _76  and  _77
REMARK   32  A    between atoms: _76  and  _79
REMARK   33  A    between atoms: _79  and  _80
REMARK   34  A    between atoms: _80  and  _81
REMARK   35  A    between atoms: _84  and  _86
REMARK   36  A    between atoms: _86  and  _87
REMARK   37  A    between atoms: _89  and  _91
REMARK   38  A    between atoms: _91  and  _92
REMARK   39  A    between atoms: _91  and  _94
REMARK   40  A    between atoms: _94  and  _95
REMARK   41  A    between atoms: _100  and  _102
REMARK   42  A    between atoms: _102  and  _103
REMARK   43  A    between atoms: _102  and  _105
REMARK   44  A    between atoms: _105  and  _106
REMARK   45  A    between atoms: _109  and  _111
REMARK   46  A    between atoms: _111  and  _112
REMARK   47  A    between atoms: _115  and  _117
REMARK   48  A    between atoms: _117  and  _118
REMARK   49  A    between atoms: _117  and  _120
REMARK   50  A    between atoms: _120  and  _121
REMARK   51  A    between atoms: _124  and  _126
REMARK   52  A    between atoms: _126  and  _127
REMARK   53  A    between atoms: _126  and  _129
REMARK   54  A    between atoms: _132  and  _134
REMARK   55  A    between atoms: _134  and  _135
REMARK   56  A    between atoms: _138  and  _140
REMARK   57  A    between atoms: _140  and  _141
REMARK   58  A    between atoms: _140  and  _143
REMARK   59  A    between atoms: _143  and  _144
REMARK   60  A    between atoms: _146  and  _148
REMARK   61  A    between atoms: _148  and  _149
REMARK   62  A    between atoms: _148  and  _151
REMARK   63  A    between atoms: _151  and  _152
REMARK   64  A    between atoms: _155  and  _157
REMARK   65  A    between atoms: _157  and  _158
REMARK   66  A    between atoms: _157  and  _160
REMARK   67  A    between atoms: _160  and  _161
REMARK   68  A    between atoms: _167  and  _169
REMARK   69  A    between atoms: _169  and  _170
REMARK   70  A    between atoms: _169  and  _172
REMARK   71  A    between atoms: _175  and  _177
REMARK   72  A    between atoms: _177  and  _178
REMARK   73  A    between atoms: _177  and  _180
REMARK   74  A    between atoms: _180  and  _181
REMARK   75  A    between atoms: _186  and  _188
REMARK   76  A    between atoms: _188  and  _189
REMARK   77  A    between atoms: _188  and  _191
REMARK   78  A    between atoms: _191  and  _192
REMARK   79  A    between atoms: _192  and  _193
REMARK   80  A    between atoms: _198  and  _200
REMARK   81  A    between atoms: _200  and  _201
REMARK   82  A    between atoms: _200  and  _203
REMARK   83  A    between atoms: _203  and  _204
REMARK   84  A    between atoms: _209  and  _210
REMARK   85  A    between atoms: _213  and  _214
REMARK   86  A    between atoms: _219  and  _221
REMARK   87  A    between atoms: _221  and  _222
REMARK   88  A    between atoms: _224  and  _226
REMARK   89  A    between atoms: _226  and  _227
REMARK   90  A    between atoms: _226  and  _229
REMARK   91  A    between atoms: _232  and  _234
REMARK   92  A    between atoms: _234  and  _235
REMARK   93  A    between atoms: _234  and  _237
REMARK   94  A    between atoms: _237  and  _238
REMARK   95  A    between atoms: _241  and  _243
REMARK   96  A    between atoms: _243  and  _244
REMARK   97  A    between atoms: _243  and  _246
REMARK   98  A    between atoms: _249  and  _251
REMARK   99  A    between atoms: _251  and  _252
REMARK  100  A    between atoms: _251  and  _254
REMARK  101  A    between atoms: _257  and  _259
REMARK  102  A    between atoms: _259  and  _260
REMARK  103  A    between atoms: _259  and  _262
REMARK  104  A    between atoms: _262  and  _263
REMARK  105  A    between atoms: _266  and  _268
REMARK  106  A    between atoms: _268  and  _269
REMARK  107  A    between atoms: _268  and  _271
REMARK  108  A    between atoms: _271  and  _272
REMARK  109  A    between atoms: _275  and  _277
REMARK  110  A    between atoms: _277  and  _278
REMARK  111  A    between atoms: _277  and  _280
REMARK  112  A    between atoms: _283  and  _285
REMARK  113  A    between atoms: _285  and  _286
REMARK  114  A    between atoms: _285  and  _288
REMARK  115  A    between atoms: _288  and  _289
REMARK  116  A    between atoms: _295  and  _297
REMARK  117  A    between atoms: _297  and  _298
REMARK  118  A    between atoms: _297  and  _300
REMARK  119  A    between atoms: _300  and  _301
REMARK  120  A    between atoms: _307  and  _309
REMARK  121  A    between atoms: _309  and  _310
REMARK  122  A    between atoms: _312  and  _314
REMARK  123  A    between atoms: _314  and  _315
REMARK  124  A    between atoms: _314  and  _317
REMARK  125  A    between atoms: _317  and  _318
REMARK  126  A    between atoms: _318  and  _319
REMARK  127  A    between atoms: _322  and  _324
REMARK  128  A    between atoms: _324  and  _325
REMARK  129  A    between atoms: _324  and  _327
REMARK  130  A    between atoms: _327  and  _328
REMARK  131  A    between atoms: _328  and  _329
REMARK  132  A    between atoms: _329  and  _330
REMARK  133  A    between atoms: _330  and  _331
REMARK  134  A    between atoms: _335  and  _337
REMARK  135  A    between atoms: _337  and  _338
REMARK  136  A    between atoms: _337  and  _340
REMARK  137  A    between atoms: _340  and  _341
REMARK  138  A    between atoms: _344  and  _346
REMARK  139  A    between atoms: _346  and  _347
REMARK  140  A    between atoms: _346  and  _349
REMARK  141  A    between atoms: _349  and  _350
REMARK  142  A    between atoms: _350  and  _351
REMARK  143  A    between atoms: _356  and  _358
REMARK  144  A    between atoms: _358  and  _359
REMARK  145  A    between atoms: _358  and  _361
REMARK  146  A    between atoms: _361  and  _362
REMARK  147  A    between atoms: _365  and  _367
REMARK  148  A    between atoms: _367  and  _368
REMARK  149  A    between atoms: _367  and  _370
REMARK  150  A    between atoms: _370  and  _371
REMARK  151  A    between atoms: _374  and  _376
REMARK  152  A    between atoms: _376  and  _377
REMARK  153  A    between atoms: _379  and  _381
REMARK  154  A    between atoms: _381  and  _382
REMARK  155  A    between atoms: _381  and  _384
REMARK  156  A    between atoms: _388  and  _389
REMARK  157  A    between atoms: _394  and  _396
REMARK  158  A    between atoms: _396  and  _397
REMARK  159  A    between atoms: _396  and  _399
REMARK  160  A    between atoms: _399  and  _400
REMARK  161  A    between atoms: _403  and  _405
REMARK  162  A    between atoms: _405  and  _406
REMARK  163  A    between atoms: _405  and  _408
REMARK  164  A    between atoms: _411  and  _413
REMARK  165  A    between atoms: _413  and  _414
REMARK  166  A    between atoms: _413  and  _416
REMARK  167  A    between atoms: _416  and  _417
REMARK  168  A    between atoms: _417  and  _418
REMARK  169  A    between atoms: _418  and  _419
REMARK  170  A    between atoms: _428  and  _430
REMARK  171  A    between atoms: _430  and  _431
REMARK  172  A    between atoms: _430  and  _433
REMARK  173  A    between atoms: _433  and  _434
REMARK  174  A    between atoms: _437  and  _439
REMARK  175  A    between atoms: _439  and  _440
REMARK  176  A    between atoms: _443  and  _445
REMARK  177  A    between atoms: _445  and  _446
REMARK  178  A    between atoms: _445  and  _448
REMARK  179  A    between atoms: _448  and  _449
REMARK  180  A    between atoms: _449  and  _450
REMARK  181  A    between atoms: _452  and  _454
REMARK  182  A    between atoms: _454  and  _455
REMARK  183  A    between atoms: _454  and  _457
REMARK  184  A    between atoms: _457  and  _458
REMARK  185  A    between atoms: _460  and  _462
REMARK  186  A    between atoms: _462  and  _463
REMARK  187  A    between atoms: _462  and  _465
REMARK  188  A    between atoms: _465  and  _466
REMARK  189  A    between atoms: _468  and  _470
REMARK  190  A    between atoms: _470  and  _471
REMARK  191  A    between atoms: _470  and  _473
REMARK  192  A    between atoms: _473  and  _474
REMARK  193  A    between atoms: _474  and  _475
REMARK  194  A    between atoms: _475  and  _476
REMARK  195  A    between atoms: _485  and  _487
REMARK  196  A    between atoms: _487  and  _488
REMARK  197  A    between atoms: _487  and  _490
REMARK  198  A    between atoms: _490  and  _491
REMARK  199  A    between atoms: _496  and  _498
REMARK  200  A    between atoms: _498  and  _499
REMARK  201  A    between atoms: _498  and  _501
REMARK  202  A    between atoms: _501  and  _502
REMARK  203  A    between atoms: _502  and  _503
REMARK  204  A    between atoms: _503  and  _504
REMARK  205  A    between atoms: _513  and  _515
REMARK  206  A    between atoms: _515  and  _516
REMARK  207  A    between atoms: _515  and  _518
REMARK  208  A    between atoms: _518  and  _519
REMARK  209  A    between atoms: _519  and  _520
REMARK  210  A    between atoms: _520  and  _521
REMARK  211  A    between atoms: _530  and  _532
REMARK  212  A    between atoms: _532  and  _533
REMARK  213  A    between atoms: _532  and  _535
REMARK  214  A    between atoms: _535  and  _536
REMARK  215  A    between atoms: _539  and  _541
REMARK  216  A    between atoms: _541  and  _542
REMARK  217  A    between atoms: _541  and  _544
REMARK  218  A    between atoms: _544  and  _545
REMARK  219  A    between atoms: _548  and  _550
REMARK  220  A    between atoms: _550  and  _551
REMARK  221  A    between atoms: _550  and  _553
REMARK  222  A    between atoms: _553  and  _554
REMARK                            x       y       z     vdW  Elec       q    Type
REMARK                         _______ _______ _______ _____ _____    ______ ____
ROOT
ATOM      1  O   HOH     1      10.566   9.766   3.143  0.00  0.00    +0.000 OA
ENDROOT
TORSDOF 0
REMARK  Name = ../refined-set-2016/3ivx/3ivx_pocket.pdb
REMARK  222 active torsions:
REMARK  status: ('A' for Active; 'I' for Inactive)
REMARK    1  A    between atoms: _1  and  _3
REMARK    2  A    between atoms: _3  and  _4
REMARK    3  A    between atoms: _3  and  _6
REMARK    4  A    between atoms: _6  and  _7
REMARK    5  A    between atoms: _10  and  _12
REMARK    6  A    between atoms: _12  and  _13
REMARK    7  A    between atoms: _12  and  _15
REMARK    8  A    between atoms: _19  and  _20
REMARK    9  A    between atoms: _25  and  _27
REMARK   10  A    between atoms: _27  and  _28
REMARK   11  A    between atoms: _27  and  _30
REMARK   12  A    between atoms: _30  and  _31
REMARK   13  A    between atoms: _34  and  _36
REMARK   14  A    between atoms: _36  and  _37
REMARK   15  A    between atoms: _36  and  _39
REMARK   16  A    between atoms: _39  and  _40
REMARK   17  A    between atoms: _40  and  _41
REMARK   18  A    between atoms: _43  and  _45
REMARK   19  A    between atoms: _45  and  _46
REMARK   20  A    between atoms: _48  and  _50
REMARK   21  A    between atoms: _50  and  _51
REMARK   22  A    between atoms: _54  and  _56
REMARK   23  A    between atoms: _56  and  _57
REMARK   24  A    between atoms: _56  and  _59
REMARK   25  A    between atoms: _59  and  _60
REMARK   26  A    between atoms: _63  and  _65
REMARK   27  A    between atoms: _65  and  _66
REMARK   28  A    between atoms: _65  and  _68
REMARK   29  A    between atoms: _68  and  _69
REMARK   30  A    between atoms: _74  and  _76
REMARK   31  A    between atoms: _76  and  _77
REMARK   32  A    between atoms: _76  and  _79
REMARK   33  A    between atoms: _79  and  _80
REMARK   34  A    between atoms: _80  and  _81
REMARK   35  A    between atoms: _84  and  _86
REMARK   36  A    between atoms: _86  and  _87
REMARK   37  A    between atoms: _89  and  _91
REMARK   38  A    between atoms: _91  and  _92
REMARK   39  A    between atoms: _91  and  _94
REMARK   40  A    between atoms: _94  and  _95
REMARK   41  A    between atoms: _100  and  _102
REMARK   42  A    between atoms: _102  and  _103
REMARK   43  A    between atoms: _102  and  _105
REMARK   44  A    between atoms: _105  and  _106
REMARK   45  A    between atoms: _109  and  _111
REMARK   46  A    between atoms: _111  and  _112
REMARK   47  A    between atoms: _115  and  _117
REMARK   48  A    between atoms: _117  and  _118
REMARK   49  A    between atoms: _117  and  _120
REMARK   50  A    between atoms: _120  and  _121
REMARK   51  A    between atoms: _124  and  _126
REMARK   52  A    between atoms: _126  and  _127
REMARK   53  A    between atoms: _126  and  _129
REMARK   54  A    between atoms: _132  and  _134
REMARK   55  A    between atoms: _134  and  _135
REMARK   56  A    between atoms: _138  and  _140
REMARK   57  A    between atoms: _140  and  _141
REMARK   58  A    between atoms: _140  and  _143
REMARK   59  A    between atoms: _143  and  _144
REMARK   60  A    between atoms: _146  and  _148
REMARK   61  A    between atoms: _148  and  _149
REMARK   62  A    between atoms: _148  and  _151
REMARK   63  A    between atoms: _151  and  _152
REMARK   64  A    between atoms: _155  and  _157
REMARK   65  A    between atoms: _157  and  _158
REMARK   66  A    between atoms: _157  and  _160
REMARK   67  A    between atoms: _160  and  _161
REMARK   68  A    between atoms: _167  and  _169
REMARK   69  A    between atoms: _169  and  _170
REMARK   70  A    between atoms: _169  and  _172
REMARK   71  A    between atoms: _175  and  _177
REMARK   72  A    between atoms: _177  and  _178
REMARK   73  A    between atoms: _177  and  _180
REMARK   74  A    between atoms: _180  and  _181
REMARK   75  A    between atoms: _186  and  _188
REMARK   76  A    between atoms: _188  and  _189
REMARK   77  A    between atoms: _188  and  _191
REMARK   78  A    between atoms: _191  and  _192
REMARK   79  A    between atoms: _192  and  _193
REMARK   80  A    between atoms: _198  and  _200
REMARK   81  A    between atoms: _200  and  _201
REMARK   82  A    between atoms: _200  and  _203
REMARK   83  A    between atoms: _203  and  _204
REMARK   84  A    between atoms: _209  and  _210
REMARK   85  A    between atoms: _213  and  _214
REMARK   86  A    between atoms: _219  and  _221
REMARK   87  A    between atoms: _221  and  _222
REMARK   88  A    between atoms: _224  and  _226
REMARK   89  A    between atoms: _226  and  _227
REMARK   90  A    between atoms: _226  and  _229
REMARK   91  A    between atoms: _232  and  _234
REMARK   92  A    between atoms: _234  and  _235
REMARK   93  A    between atoms: _234  and  _237
REMARK   94  A    between atoms: _237  and  _238
REMARK   95  A    between atoms: _241  and  _243
REMARK   96  A    between atoms: _243  and  _244
REMARK   97  A    between atoms: _243  and  _246
REMARK   98  A    between atoms: _249  and  _251
REMARK   99  A    between atoms: _251  and  _252
REMARK  100  A    between atoms: _251  and  _254
REMARK  101  A    between atoms: _257  and  _259
REMARK  102  A    between atoms: _259  and  _260
REMARK  103  A    between atoms: _259  and  _262
REMARK  104  A    between atoms: _262  and  _263
REMARK  105  A    between atoms: _266  and  _268
REMARK  106  A    between atoms: _268  and  _269
REMARK  107  A    between atoms: _268  and  _271
REMARK  108  A    between atoms: _271  and  _272
REMARK  109  A    between atoms: _275  and  _277
REMARK  110  A    between atoms: _277  and  _278
REMARK  111  A    between atoms: _277  and  _280
REMARK  112  A    between atoms: _283  and  _285
REMARK  113  A    between atoms: _285  and  _286
REMARK  114  A    between atoms: _285  and  _288
REMARK  115  A    between atoms: _288  and  _289
REMARK  116  A    between atoms: _295  and  _297
REMARK  117  A    between atoms: _297  and  _298
REMARK  118  A    between atoms: _297  and  _300
REMARK  119  A    between atoms: _300  and  _301
REMARK  120  A    between atoms: _307  and  _309
REMARK  121  A    between atoms: _309  and  _310
REMARK  122  A    between atoms: _312  and  _314
REMARK  123  A    between atoms: _314  and  _315
REMARK  124  A    between atoms: _314  and  _317
REMARK  125  A    between atoms: _317  and  _318
REMARK  126  A    between atoms: _318  and  _319
REMARK  127  A    between atoms: _322  and  _324
REMARK  128  A    between atoms: _324  and  _325
REMARK  129  A    between atoms: _324  and  _327
REMARK  130  A    between atoms: _327  and  _328
REMARK  131  A    between atoms: _328  and  _329
REMARK  132  A    between atoms: _329  and  _330
REMARK  133  A    between atoms: _330  and  _331
REMARK  134  A    between atoms: _335  and  _337
REMARK  135  A    between atoms: _337  and  _338
REMARK  136  A    between atoms: _337  and  _340
REMARK  137  A    between atoms: _340  and  _341
REMARK  138  A    between atoms: _344  and  _346
REMARK  139  A    between atoms: _346  and  _347
REMARK  140  A    between atoms: _346  and  _349
REMARK  141  A    between atoms: _349  and  _350
REMARK  142  A    between atoms: _350  and  _351
REMARK  143  A    between atoms: _356  and  _358
REMARK  144  A    between atoms: _358  and  _359
REMARK  145  A    between atoms: _358  and  _361
REMARK  146  A    between atoms: _361  and  _362
REMARK  147  A    between atoms: _365  and  _367
REMARK  148  A    between atoms: _367  and  _368
REMARK  149  A    between atoms: _367  and  _370
REMARK  150  A    between atoms: _370  and  _371
REMARK  151  A    between atoms: _374  and  _376
REMARK  152  A    between atoms: _376  and  _377
REMARK  153  A    between atoms: _379  and  _381
REMARK  154  A    between atoms: _381  and  _382
REMARK  155  A    between atoms: _381  and  _384
REMARK  156  A    between atoms: _388  and  _389
REMARK  157  A    between atoms: _394  and  _396
REMARK  158  A    between atoms: _396  and  _397
REMARK  159  A    between atoms: _396  and  _399
REMARK  160  A    between atoms: _399  and  _400
REMARK  161  A    between atoms: _403  and  _405
REMARK  162  A    between atoms: _405  and  _406
REMARK  163  A    between atoms: _405  and  _408
REMARK  164  A    between atoms: _411  and  _413
REMARK  165  A    between atoms: _413  and  _414
REMARK  166  A    between atoms: _413  and  _416
REMARK  167  A    between atoms: _416  and  _417
REMARK  168  A    between atoms: _417  and  _418
REMARK  169  A    between atoms: _418  and  _419
REMARK  170  A    between atoms: _428  and  _430
REMARK  171  A    between atoms: _430  and  _431
REMARK  172  A    between atoms: _430  and  _433
REMARK  173  A    between atoms: _433  and  _434
REMARK  174  A    between atoms: _437  and  _439
REMARK  175  A    between atoms: _439  and  _440
REMARK  176  A    between atoms: _443  and  _445
REMARK  177  A    between atoms: _445  and  _446
REMARK  178  A    between atoms: _445  and  _448
REMARK  179  A    between atoms: _448  and  _449
REMARK  180  A    between atoms: _449  and  _450
REMARK  181  A    between atoms: _452  and  _454
REMARK  182  A    between atoms: _454  and  _455
REMARK  183  A    between atoms: _454  and  _457
REMARK  184  A    between atoms: _457  and  _458
REMARK  185  A    between atoms: _460  and  _462
REMARK  186  A    between atoms: _462  and  _463
REMARK  187  A    between atoms: _462  and  _465
REMARK  188  A    between atoms: _465  and  _466
REMARK  189  A    between atoms: _468  and  _470
REMARK  190  A    between atoms: _470  and  _471
REMARK  191  A    between atoms: _470  and  _473
REMARK  192  A    between atoms: _473  and  _474
REMARK  193  A    between atoms: _474  and  _475
REMARK  194  A    between atoms: _475  and  _476
REMARK  195  A    between atoms: _485  and  _487
REMARK  196  A    between atoms: _487  and  _488
REMARK  197  A    between atoms: _487  and  _490
REMARK  198  A    between atoms: _490  and  _491
REMARK  199  A    between atoms: _496  and  _498
REMARK  200  A    between atoms: _498  and  _499
REMARK  201  A    between atoms: _498  and  _501
REMARK  202  A    between atoms: _501  and  _502
REMARK  203  A    between atoms: _502  and  _503
REMARK  204  A    between atoms: _503  and  _504
REMARK  205  A    between atoms: _513  and  _515
REMARK  206  A    between atoms: _515  and  _516
REMARK  207  A    between atoms: _515  and  _518
REMARK  208  A    between atoms: _518  and  _519
REMARK  209  A    between atoms: _519  and  _520
REMARK  210  A    between atoms: _520  and  _521
REMARK  211  A    between atoms: _530  and  _532
REMARK  212  A    between atoms: _532  and  _533
REMARK  213  A    between atoms: _532  and  _535
REMARK  214  A    between atoms: _535  and  _536
REMARK  215  A    between atoms: _539  and  _541
REMARK  216  A    between atoms: _541  and  _542
REMARK  217  A    between atoms: _541  and  _544
REMARK  218  A    between atoms: _544  and  _545
REMARK  219  A    between atoms: _548  and  _550
REMARK  220  A    between atoms: _550  and  _551
REMARK  221  A    between atoms: _550  and  _553
REMARK  222  A    between atoms: _553  and  _554
REMARK                            x       y       z     vdW  Elec       q    Type
REMARK                         _______ _______ _______ _____ _____    ______ ____
ROOT
ATOM      1  O   HOH     1      21.535   8.751   7.514  0.00  0.00    +0.000 OA
ENDROOT
TORSDOF 0
REMARK  Name = ../refined-set-2016/3ivx/3ivx_pocket.pdb
REMARK  222 active torsions:
REMARK  status: ('A' for Active; 'I' for Inactive)
REMARK    1  A    between atoms: _1  and  _3
REMARK    2  A    between atoms: _3  and  _4
REMARK    3  A    between atoms: _3  and  _6
REMARK    4  A    between atoms: _6  and  _7
REMARK    5  A    between atoms: _10  and  _12
REMARK    6  A    between atoms: _12  and  _13
REMARK    7  A    between atoms: _12  and  _15
REMARK    8  A    between atoms: _19  and  _20
REMARK    9  A    between atoms: _25  and  _27
REMARK   10  A    between atoms: _27  and  _28
REMARK   11  A    between atoms: _27  and  _30
REMARK   12  A    between atoms: _30  and  _31
REMARK   13  A    between atoms: _34  and  _36
REMARK   14  A    between atoms: _36  and  _37
REMARK   15  A    between atoms: _36  and  _39
REMARK   16  A    between atoms: _39  and  _40
REMARK   17  A    between atoms: _40  and  _41
REMARK   18  A    between atoms: _43  and  _45
REMARK   19  A    between atoms: _45  and  _46
REMARK   20  A    between atoms: _48  and  _50
REMARK   21  A    between atoms: _50  and  _51
REMARK   22  A    between atoms: _54  and  _56
REMARK   23  A    between atoms: _56  and  _57
REMARK   24  A    between atoms: _56  and  _59
REMARK   25  A    between atoms: _59  and  _60
REMARK   26  A    between atoms: _63  and  _65
REMARK   27  A    between atoms: _65  and  _66
REMARK   28  A    between atoms: _65  and  _68
REMARK   29  A    between atoms: _68  and  _69
REMARK   30  A    between atoms: _74  and  _76
REMARK   31  A    between atoms: _76  and  _77
REMARK   32  A    between atoms: _76  and  _79
REMARK   33  A    between atoms: _79  and  _80
REMARK   34  A    between atoms: _80  and  _81
REMARK   35  A    between atoms: _84  and  _86
REMARK   36  A    between atoms: _86  and  _87
REMARK   37  A    between atoms: _89  and  _91
REMARK   38  A    between atoms: _91  and  _92
REMARK   39  A    between atoms: _91  and  _94
REMARK   40  A    between atoms: _94  and  _95
REMARK   41  A    between atoms: _100  and  _102
REMARK   42  A    between atoms: _102  and  _103
REMARK   43  A    between atoms: _102  and  _105
REMARK   44  A    between atoms: _105  and  _106
REMARK   45  A    between atoms: _109  and  _111
REMARK   46  A    between atoms: _111  and  _112
REMARK   47  A    between atoms: _115  and  _117
REMARK   48  A    between atoms: _117  and  _118
REMARK   49  A    between atoms: _117  and  _120
REMARK   50  A    between atoms: _120  and  _121
REMARK   51  A    between atoms: _124  and  _126
REMARK   52  A    between atoms: _126  and  _127
REMARK   53  A    between atoms: _126  and  _129
REMARK   54  A    between atoms: _132  and  _134
REMARK   55  A    between atoms: _134  and  _135
REMARK   56  A    between atoms: _138  and  _140
REMARK   57  A    between atoms: _140  and  _141
REMARK   58  A    between atoms: _140  and  _143
REMARK   59  A    between atoms: _143  and  _144
REMARK   60  A    between atoms: _146  and  _148
REMARK   61  A    between atoms: _148  and  _149
REMARK   62  A    between atoms: _148  and  _151
REMARK   63  A    between atoms: _151  and  _152
REMARK   64  A    between atoms: _155  and  _157
REMARK   65  A    between atoms: _157  and  _158
REMARK   66  A    between atoms: _157  and  _160
REMARK   67  A    between atoms: _160  and  _161
REMARK   68  A    between atoms: _167  and  _169
REMARK   69  A    between atoms: _169  and  _170
REMARK   70  A    between atoms: _169  and  _172
REMARK   71  A    between atoms: _175  and  _177
REMARK   72  A    between atoms: _177  and  _178
REMARK   73  A    between atoms: _177  and  _180
REMARK   74  A    between atoms: _180  and  _181
REMARK   75  A    between atoms: _186  and  _188
REMARK   76  A    between atoms: _188  and  _189
REMARK   77  A    between atoms: _188  and  _191
REMARK   78  A    between atoms: _191  and  _192
REMARK   79  A    between atoms: _192  and  _193
REMARK   80  A    between atoms: _198  and  _200
REMARK   81  A    between atoms: _200  and  _201
REMARK   82  A    between atoms: _200  and  _203
REMARK   83  A    between atoms: _203  and  _204
REMARK   84  A    between atoms: _209  and  _210
REMARK   85  A    between atoms: _213  and  _214
REMARK   86  A    between atoms: _219  and  _221
REMARK   87  A    between atoms: _221  and  _222
REMARK   88  A    between atoms: _224  and  _226
REMARK   89  A    between atoms: _226  and  _227
REMARK   90  A    between atoms: _226  and  _229
REMARK   91  A    between atoms: _232  and  _234
REMARK   92  A    between atoms: _234  and  _235
REMARK   93  A    between atoms: _234  and  _237
REMARK   94  A    between atoms: _237  and  _238
REMARK   95  A    between atoms: _241  and  _243
REMARK   96  A    between atoms: _243  and  _244
REMARK   97  A    between atoms: _243  and  _246
REMARK   98  A    between atoms: _249  and  _251
REMARK   99  A    between atoms: _251  and  _252
REMARK  100  A    between atoms: _251  and  _254
REMARK  101  A    between atoms: _257  and  _259
REMARK  102  A    between atoms: _259  and  _260
REMARK  103  A    between atoms: _259  and  _262
REMARK  104  A    between atoms: _262  and  _263
REMARK  105  A    between atoms: _266  and  _268
REMARK  106  A    between atoms: _268  and  _269
REMARK  107  A    between atoms: _268  and  _271
REMARK  108  A    between atoms: _271  and  _272
REMARK  109  A    between atoms: _275  and  _277
REMARK  110  A    between atoms: _277  and  _278
REMARK  111  A    between atoms: _277  and  _280
REMARK  112  A    between atoms: _283  and  _285
REMARK  113  A    between atoms: _285  and  _286
REMARK  114  A    between atoms: _285  and  _288
REMARK  115  A    between atoms: _288  and  _289
REMARK  116  A    between atoms: _295  and  _297
REMARK  117  A    between atoms: _297  and  _298
REMARK  118  A    between atoms: _297  and  _300
REMARK  119  A    between atoms: _300  and  _301
REMARK  120  A    between atoms: _307  and  _309
REMARK  121  A    between atoms: _309  and  _310
REMARK  122  A    between atoms: _312  and  _314
REMARK  123  A    between atoms: _314  and  _315
REMARK  124  A    between atoms: _314  and  _317
REMARK  125  A    between atoms: _317  and  _318
REMARK  126  A    between atoms: _318  and  _319
REMARK  127  A    between atoms: _322  and  _324
REMARK  128  A    between atoms: _324  and  _325
REMARK  129  A    between atoms: _324  and  _327
REMARK  130  A    between atoms: _327  and  _328
REMARK  131  A    between atoms: _328  and  _329
REMARK  132  A    between atoms: _329  and  _330
REMARK  133  A    between atoms: _330  and  _331
REMARK  134  A    between atoms: _335  and  _337
REMARK  135  A    between atoms: _337  and  _338
REMARK  136  A    between atoms: _337  and  _340
REMARK  137  A    between atoms: _340  and  _341
REMARK  138  A    between atoms: _344  and  _346
REMARK  139  A    between atoms: _346  and  _347
REMARK  140  A    between atoms: _346  and  _349
REMARK  141  A    between atoms: _349  and  _350
REMARK  142  A    between atoms: _350  and  _351
REMARK  143  A    between atoms: _356  and  _358
REMARK  144  A    between atoms: _358  and  _359
REMARK  145  A    between atoms: _358  and  _361
REMARK  146  A    between atoms: _361  and  _362
REMARK  147  A    between atoms: _365  and  _367
REMARK  148  A    between atoms: _367  and  _368
REMARK  149  A    between atoms: _367  and  _370
REMARK  150  A    between atoms: _370  and  _371
REMARK  151  A    between atoms: _374  and  _376
REMARK  152  A    between atoms: _376  and  _377
REMARK  153  A    between atoms: _379  and  _381
REMARK  154  A    between atoms: _381  and  _382
REMARK  155  A    between atoms: _381  and  _384
REMARK  156  A    between atoms: _388  and  _389
REMARK  157  A    between atoms: _394  and  _396
REMARK  158  A    between atoms: _396  and  _397
REMARK  159  A    between atoms: _396  and  _399
REMARK  160  A    between atoms: _399  and  _400
REMARK  161  A    between atoms: _403  and  _405
REMARK  162  A    between atoms: _405  and  _406
REMARK  163  A    between atoms: _405  and  _408
REMARK  164  A    between atoms: _411  and  _413
REMARK  165  A    between atoms: _413  and  _414
REMARK  166  A    between atoms: _413  and  _416
REMARK  167  A    between atoms: _416  and  _417
REMARK  168  A    between atoms: _417  and  _418
REMARK  169  A    between atoms: _418  and  _419
REMARK  170  A    between atoms: _428  and  _430
REMARK  171  A    between atoms: _430  and  _431
REMARK  172  A    between atoms: _430  and  _433
REMARK  173  A    between atoms: _433  and  _434
REMARK  174  A    between atoms: _437  and  _439
REMARK  175  A    between atoms: _439  and  _440
REMARK  176  A    between atoms: _443  and  _445
REMARK  177  A    between atoms: _445  and  _446
REMARK  178  A    between atoms: _445  and  _448
REMARK  179  A    between atoms: _448  and  _449
REMARK  180  A    between atoms: _449  and  _450
REMARK  181  A    between atoms: _452  and  _454
REMARK  182  A    between atoms: _454  and  _455
REMARK  183  A    between atoms: _454  and  _457
REMARK  184  A    between atoms: _457  and  _458
REMARK  185  A    between atoms: _460  and  _462
REMARK  186  A    between atoms: _462  and  _463
REMARK  187  A    between atoms: _462  and  _465
REMARK  188  A    between atoms: _465  and  _466
REMARK  189  A    between atoms: _468  and  _470
REMARK  190  A    between atoms: _470  and  _471
REMARK  191  A    between atoms: _470  and  _473
REMARK  192  A    between atoms: _473  and  _474
REMARK  193  A    between atoms: _474  and  _475
REMARK  194  A    between atoms: _475  and  _476
REMARK  195  A    between atoms: _485  and  _487
REMARK  196  A    between atoms: _487  and  _488
REMARK  197  A    between atoms: _487  and  _490
REMARK  198  A    between atoms: _490  and  _491
REMARK  199  A    between atoms: _496  and  _498
REMARK  200  A    between atoms: _498  and  _499
REMARK  201  A    between atoms: _498  and  _501
REMARK  202  A    between atoms: _501  and  _502
REMARK  203  A    between atoms: _502  and  _503
REMARK  204  A    between atoms: _503  and  _504
REMARK  205  A    between atoms: _513  and  _515
REMARK  206  A    between atoms: _515  and  _516
REMARK  207  A    between atoms: _515  and  _518
REMARK  208  A    between atoms: _518  and  _519
REMARK  209  A    between atoms: _519  and  _520
REMARK  210  A    between atoms: _520  and  _521
REMARK  211  A    between atoms: _530  and  _532
REMARK  212  A    between atoms: _532  and  _533
REMARK  213  A    between atoms: _532  and  _535
REMARK  214  A    between atoms: _535  and  _536
REMARK  215  A    between atoms: _539  and  _541
REMARK  216  A    between atoms: _541  and  _542
REMARK  217  A    between atoms: _541  and  _544
REMARK  218  A    between atoms: _544  and  _545
REMARK  219  A    between atoms: _548  and  _550
REMARK  220  A    between atoms: _550  and  _551
REMARK  221  A    between atoms: _550  and  _553
REMARK  222  A    between atoms: _553  and  _554
REMARK                            x       y       z     vdW  Elec       q    Type
REMARK                         _______ _______ _______ _____ _____    ______ ____
ROOT
ATOM      1  O   HOH     1      22.886   9.899  -6.243  0.00  0.00    +0.000 OA
ENDROOT
TORSDOF 0
REMARK  Name = ../refined-set-2016/3ivx/3ivx_pocket.pdb
REMARK  222 active torsions:
REMARK  status: ('A' for Active; 'I' for Inactive)
REMARK    1  A    between atoms: _1  and  _3
REMARK    2  A    between atoms: _3  and  _4
REMARK    3  A    between atoms: _3  and  _6
REMARK    4  A    between atoms: _6  and  _7
REMARK    5  A    between atoms: _10  and  _12
REMARK    6  A    between atoms: _12  and  _13
REMARK    7  A    between atoms: _12  and  _15
REMARK    8  A    between atoms: _19  and  _20
REMARK    9  A    between atoms: _25  and  _27
REMARK   10  A    between atoms: _27  and  _28
REMARK   11  A    between atoms: _27  and  _30
REMARK   12  A    between atoms: _30  and  _31
REMARK   13  A    between atoms: _34  and  _36
REMARK   14  A    between atoms: _36  and  _37
REMARK   15  A    between atoms: _36  and  _39
REMARK   16  A    between atoms: _39  and  _40
REMARK   17  A    between atoms: _40  and  _41
REMARK   18  A    between atoms: _43  and  _45
REMARK   19  A    between atoms: _45  and  _46
REMARK   20  A    between atoms: _48  and  _50
REMARK   21  A    between atoms: _50  and  _51
REMARK   22  A    between atoms: _54  and  _56
REMARK   23  A    between atoms: _56  and  _57
REMARK   24  A    between atoms: _56  and  _59
REMARK   25  A    between atoms: _59  and  _60
REMARK   26  A    between atoms: _63  and  _65
REMARK   27  A    between atoms: _65  and  _66
REMARK   28  A    between atoms: _65  and  _68
REMARK   29  A    between atoms: _68  and  _69
REMARK   30  A    between atoms: _74  and  _76
REMARK   31  A    between atoms: _76  and  _77
REMARK   32  A    between atoms: _76  and  _79
REMARK   33  A    between atoms: _79  and  _80
REMARK   34  A    between atoms: _80  and  _81
REMARK   35  A    between atoms: _84  and  _86
REMARK   36  A    between atoms: _86  and  _87
REMARK   37  A    between atoms: _89  and  _91
REMARK   38  A    between atoms: _91  and  _92
REMARK   39  A    between atoms: _91  and  _94
REMARK   40  A    between atoms: _94  and  _95
REMARK   41  A    between atoms: _100  and  _102
REMARK   42  A    between atoms: _102  and  _103
REMARK   43  A    between atoms: _102  and  _105
REMARK   44  A    between atoms: _105  and  _106
REMARK   45  A    between atoms: _109  and  _111
REMARK   46  A    between atoms: _111  and  _112
REMARK   47  A    between atoms: _115  and  _117
REMARK   48  A    between atoms: _117  and  _118
REMARK   49  A    between atoms: _117  and  _120
REMARK   50  A    between atoms: _120  and  _121
REMARK   51  A    between atoms: _124  and  _126
REMARK   52  A    between atoms: _126  and  _127
REMARK   53  A    between atoms: _126  and  _129
REMARK   54  A    between atoms: _132  and  _134
REMARK   55  A    between atoms: _134  and  _135
REMARK   56  A    between atoms: _138  and  _140
REMARK   57  A    between atoms: _140  and  _141
REMARK   58  A    between atoms: _140  and  _143
REMARK   59  A    between atoms: _143  and  _144
REMARK   60  A    between atoms: _146  and  _148
REMARK   61  A    between atoms: _148  and  _149
REMARK   62  A    between atoms: _148  and  _151
REMARK   63  A    between atoms: _151  and  _152
REMARK   64  A    between atoms: _155  and  _157
REMARK   65  A    between atoms: _157  and  _158
REMARK   66  A    between atoms: _157  and  _160
REMARK   67  A    between atoms: _160  and  _161
REMARK   68  A    between atoms: _167  and  _169
REMARK   69  A    between atoms: _169  and  _170
REMARK   70  A    between atoms: _169  and  _172
REMARK   71  A    between atoms: _175  and  _177
REMARK   72  A    between atoms: _177  and  _178
REMARK   73  A    between atoms: _177  and  _180
REMARK   74  A    between atoms: _180  and  _181
REMARK   75  A    between atoms: _186  and  _188
REMARK   76  A    between atoms: _188  and  _189
REMARK   77  A    between atoms: _188  and  _191
REMARK   78  A    between atoms: _191  and  _192
REMARK   79  A    between atoms: _192  and  _193
REMARK   80  A    between atoms: _198  and  _200
REMARK   81  A    between atoms: _200  and  _201
REMARK   82  A    between atoms: _200  and  _203
REMARK   83  A    between atoms: _203  and  _204
REMARK   84  A    between atoms: _209  and  _210
REMARK   85  A    between atoms: _213  and  _214
REMARK   86  A    between atoms: _219  and  _221
REMARK   87  A    between atoms: _221  and  _222
REMARK   88  A    between atoms: _224  and  _226
REMARK   89  A    between atoms: _226  and  _227
REMARK   90  A    between atoms: _226  and  _229
REMARK   91  A    between atoms: _232  and  _234
REMARK   92  A    between atoms: _234  and  _235
REMARK   93  A    between atoms: _234  and  _237
REMARK   94  A    between atoms: _237  and  _238
REMARK   95  A    between atoms: _241  and  _243
REMARK   96  A    between atoms: _243  and  _244
REMARK   97  A    between atoms: _243  and  _246
REMARK   98  A    between atoms: _249  and  _251
REMARK   99  A    between atoms: _251  and  _252
REMARK  100  A    between atoms: _251  and  _254
REMARK  101  A    between atoms: _257  and  _259
REMARK  102  A    between atoms: _259  and  _260
REMARK  103  A    between atoms: _259  and  _262
REMARK  104  A    between atoms: _262  and  _263
REMARK  105  A    between atoms: _266  and  _268
REMARK  106  A    between atoms: _268  and  _269
REMARK  107  A    between atoms: _268  and  _271
REMARK  108  A    between atoms: _271  and  _272
REMARK  109  A    between atoms: _275  and  _277
REMARK  110  A    between atoms: _277  and  _278
REMARK  111  A    between atoms: _277  and  _280
REMARK  112  A    between atoms: _283  and  _285
REMARK  113  A    between atoms: _285  and  _286
REMARK  114  A    between atoms: _285  and  _288
REMARK  115  A    between atoms: _288  and  _289
REMARK  116  A    between atoms: _295  and  _297
REMARK  117  A    between atoms: _297  and  _298
REMARK  118  A    between atoms: _297  and  _300
REMARK  119  A    between atoms: _300  and  _301
REMARK  120  A    between atoms: _307  and  _309
REMARK  121  A    between atoms: _309  and  _310
REMARK  122  A    between atoms: _312  and  _314
REMARK  123  A    between atoms: _314  and  _315
REMARK  124  A    between atoms: _314  and  _317
REMARK  125  A    between atoms: _317  and  _318
REMARK  126  A    between atoms: _318  and  _319
REMARK  127  A    between atoms: _322  and  _324
REMARK  128  A    between atoms: _324  and  _325
REMARK  129  A    between atoms: _324  and  _327
REMARK  130  A    between atoms: _327  and  _328
REMARK  131  A    between atoms: _328  and  _329
REMARK  132  A    between atoms: _329  and  _330
REMARK  133  A    between atoms: _330  and  _331
REMARK  134  A    between atoms: _335  and  _337
REMARK  135  A    between atoms: _337  and  _338
REMARK  136  A    between atoms: _337  and  _340
REMARK  137  A    between atoms: _340  and  _341
REMARK  138  A    between atoms: _344  and  _346
REMARK  139  A    between atoms: _346  and  _347
REMARK  140  A    between atoms: _346  and  _349
REMARK  141  A    between atoms: _349  and  _350
REMARK  142  A    between atoms: _350  and  _351
REMARK  143  A    between atoms: _356  and  _358
REMARK  144  A    between atoms: _358  and  _359
REMARK  145  A    between atoms: _358  and  _361
REMARK  146  A    between atoms: _361  and  _362
REMARK  147  A    between atoms: _365  and  _367
REMARK  148  A    between atoms: _367  and  _368
REMARK  149  A    between atoms: _367  and  _370
REMARK  150  A    between atoms: _370  and  _371
REMARK  151  A    between atoms: _374  and  _376
REMARK  152  A    between atoms: _376  and  _377
REMARK  153  A    between atoms: _379  and  _381
REMARK  154  A    between atoms: _381  and  _382
REMARK  155  A    between atoms: _381  and  _384
REMARK  156  A    between atoms: _388  and  _389
REMARK  157  A    between atoms: _394  and  _396
REMARK  158  A    between atoms: _396  and  _397
REMARK  159  A    between atoms: _396  and  _399
REMARK  160  A    between atoms: _399  and  _400
REMARK  161  A    between atoms: _403  and  _405
REMARK  162  A    between atoms: _405  and  _406
REMARK  163  A    between atoms: _405  and  _408
REMARK  164  A    between atoms: _411  and  _413
REMARK  165  A    between atoms: _413  and  _414
REMARK  166  A    between atoms: _413  and  _416
REMARK  167  A    between atoms: _416  and  _417
REMARK  168  A    between atoms: _417  and  _418
REMARK  169  A    between atoms: _418  and  _419
REMARK  170  A    between atoms: _428  and  _430
REMARK  171  A    between atoms: _430  and  _431
REMARK  172  A    between atoms: _430  and  _433
REMARK  173  A    between atoms: _433  and  _434
REMARK  174  A    between atoms: _437  and  _439
REMARK  175  A    between atoms: _439  and  _440
REMARK  176  A    between atoms: _443  and  _445
REMARK  177  A    between atoms: _445  and  _446
REMARK  178  A    between atoms: _445  and  _448
REMARK  179  A    between atoms: _448  and  _449
REMARK  180  A    between atoms: _449  and  _450
REMARK  181  A    between atoms: _452  and  _454
REMARK  182  A    between atoms: _454  and  _455
REMARK  183  A    between atoms: _454  and  _457
REMARK  184  A    between atoms: _457  and  _458
REMARK  185  A    between atoms: _460  and  _462
REMARK  186  A    between atoms: _462  and  _463
REMARK  187  A    between atoms: _462  and  _465
REMARK  188  A    between atoms: _465  and  _466
REMARK  189  A    between atoms: _468  and  _470
REMARK  190  A    between atoms: _470  and  _471
REMARK  191  A    between atoms: _470  and  _473
REMARK  192  A    between atoms: _473  and  _474
REMARK  193  A    between atoms: _474  and  _475
REMARK  194  A    between atoms: _475  and  _476
REMARK  195  A    between atoms: _485  and  _487
REMARK  196  A    between atoms: _487  and  _488
REMARK  197  A    between atoms: _487  and  _490
REMARK  198  A    between atoms: _490  and  _491
REMARK  199  A    between atoms: _496  and  _498
REMARK  200  A    between atoms: _498  and  _499
REMARK  201  A    between atoms: _498  and  _501
REMARK  202  A    between atoms: _501  and  _502
REMARK  203  A    between atoms: _502  and  _503
REMARK  204  A    between atoms: _503  and  _504
REMARK  205  A    between atoms: _513  and  _515
REMARK  206  A    between atoms: _515  and  _516
REMARK  207  A    between atoms: _515  and  _518
REMARK  208  A    between atoms: _518  and  _519
REMARK  209  A    between atoms: _519  and  _520
REMARK  210  A    between atoms: _520  and  _521
REMARK  211  A    between atoms: _530  and  _532
REMARK  212  A    between atoms: _532  and  _533
REMARK  213  A    between atoms: _532  and  _535
REMARK  214  A    between atoms: _535  and  _536
REMARK  215  A    between atoms: _539  and  _541
REMARK  216  A    between atoms: _541  and  _542
REMARK  217  A    between atoms: _541  and  _544
REMARK  218  A    between atoms: _544  and  _545
REMARK  219  A    between atoms: _548  and  _550
REMARK  220  A    between atoms: _550  and  _551
REMARK  221  A    between atoms: _550  and  _553
REMARK  222  A    between atoms: _553  and  _554
REMARK                            x       y       z     vdW  Elec       q    Type
REMARK                         _______ _______ _______ _____ _____    ______ ____
ROOT
ATOM      1  O   HOH     1      23.134   8.305  -3.742  0.00  0.00    +0.000 OA
ENDROOT
TORSDOF 0
REMARK  Name = ../refined-set-2016/3ivx/3ivx_pocket.pdb
REMARK  222 active torsions:
REMARK  status: ('A' for Active; 'I' for Inactive)
REMARK    1  A    between atoms: _1  and  _3
REMARK    2  A    between atoms: _3  and  _4
REMARK    3  A    between atoms: _3  and  _6
REMARK    4  A    between atoms: _6  and  _7
REMARK    5  A    between atoms: _10  and  _12
REMARK    6  A    between atoms: _12  and  _13
REMARK    7  A    between atoms: _12  and  _15
REMARK    8  A    between atoms: _19  and  _20
REMARK    9  A    between atoms: _25  and  _27
REMARK   10  A    between atoms: _27  and  _28
REMARK   11  A    between atoms: _27  and  _30
REMARK   12  A    between atoms: _30  and  _31
REMARK   13  A    between atoms: _34  and  _36
REMARK   14  A    between atoms: _36  and  _37
REMARK   15  A    between atoms: _36  and  _39
REMARK   16  A    between atoms: _39  and  _40
REMARK   17  A    between atoms: _40  and  _41
REMARK   18  A    between atoms: _43  and  _45
REMARK   19  A    between atoms: _45  and  _46
REMARK   20  A    between atoms: _48  and  _50
REMARK   21  A    between atoms: _50  and  _51
REMARK   22  A    between atoms: _54  and  _56
REMARK   23  A    between atoms: _56  and  _57
REMARK   24  A    between atoms: _56  and  _59
REMARK   25  A    between atoms: _59  and  _60
REMARK   26  A    between atoms: _63  and  _65
REMARK   27  A    between atoms: _65  and  _66
REMARK   28  A    between atoms: _65  and  _68
REMARK   29  A    between atoms: _68  and  _69
REMARK   30  A    between atoms: _74  and  _76
REMARK   31  A    between atoms: _76  and  _77
REMARK   32  A    between atoms: _76  and  _79
REMARK   33  A    between atoms: _79  and  _80
REMARK   34  A    between atoms: _80  and  _81
REMARK   35  A    between atoms: _84  and  _86
REMARK   36  A    between atoms: _86  and  _87
REMARK   37  A    between atoms: _89  and  _91
REMARK   38  A    between atoms: _91  and  _92
REMARK   39  A    between atoms: _91  and  _94
REMARK   40  A    between atoms: _94  and  _95
REMARK   41  A    between atoms: _100  and  _102
REMARK   42  A    between atoms: _102  and  _103
REMARK   43  A    between atoms: _102  and  _105
REMARK   44  A    between atoms: _105  and  _106
REMARK   45  A    between atoms: _109  and  _111
REMARK   46  A    between atoms: _111  and  _112
REMARK   47  A    between atoms: _115  and  _117
REMARK   48  A    between atoms: _117  and  _118
REMARK   49  A    between atoms: _117  and  _120
REMARK   50  A    between atoms: _120  and  _121
REMARK   51  A    between atoms: _124  and  _126
REMARK   52  A    between atoms: _126  and  _127
REMARK   53  A    between atoms: _126  and  _129
REMARK   54  A    between atoms: _132  and  _134
REMARK   55  A    between atoms: _134  and  _135
REMARK   56  A    between atoms: _138  and  _140
REMARK   57  A    between atoms: _140  and  _141
REMARK   58  A    between atoms: _140  and  _143
REMARK   59  A    between atoms: _143  and  _144
REMARK   60  A    between atoms: _146  and  _148
REMARK   61  A    between atoms: _148  and  _149
REMARK   62  A    between atoms: _148  and  _151
REMARK   63  A    between atoms: _151  and  _152
REMARK   64  A    between atoms: _155  and  _157
REMARK   65  A    between atoms: _157  and  _158
REMARK   66  A    between atoms: _157  and  _160
REMARK   67  A    between atoms: _160  and  _161
REMARK   68  A    between atoms: _167  and  _169
REMARK   69  A    between atoms: _169  and  _170
REMARK   70  A    between atoms: _169  and  _172
REMARK   71  A    between atoms: _175  and  _177
REMARK   72  A    between atoms: _177  and  _178
REMARK   73  A    between atoms: _177  and  _180
REMARK   74  A    between atoms: _180  and  _181
REMARK   75  A    between atoms: _186  and  _188
REMARK   76  A    between atoms: _188  and  _189
REMARK   77  A    between atoms: _188  and  _191
REMARK   78  A    between atoms: _191  and  _192
REMARK   79  A    between atoms: _192  and  _193
REMARK   80  A    between atoms: _198  and  _200
REMARK   81  A    between atoms: _200  and  _201
REMARK   82  A    between atoms: _200  and  _203
REMARK   83  A    between atoms: _203  and  _204
REMARK   84  A    between atoms: _209  and  _210
REMARK   85  A    between atoms: _213  and  _214
REMARK   86  A    between atoms: _219  and  _221
REMARK   87  A    between atoms: _221  and  _222
REMARK   88  A    between atoms: _224  and  _226
REMARK   89  A    between atoms: _226  and  _227
REMARK   90  A    between atoms: _226  and  _229
REMARK   91  A    between atoms: _232  and  _234
REMARK   92  A    between atoms: _234  and  _235
REMARK   93  A    between atoms: _234  and  _237
REMARK   94  A    between atoms: _237  and  _238
REMARK   95  A    between atoms: _241  and  _243
REMARK   96  A    between atoms: _243  and  _244
REMARK   97  A    between atoms: _243  and  _246
REMARK   98  A    between atoms: _249  and  _251
REMARK   99  A    between atoms: _251  and  _252
REMARK  100  A    between atoms: _251  and  _254
REMARK  101  A    between atoms: _257  and  _259
REMARK  102  A    between atoms: _259  and  _260
REMARK  103  A    between atoms: _259  and  _262
REMARK  104  A    between atoms: _262  and  _263
REMARK  105  A    between atoms: _266  and  _268
REMARK  106  A    between atoms: _268  and  _269
REMARK  107  A    between atoms: _268  and  _271
REMARK  108  A    between atoms: _271  and  _272
REMARK  109  A    between atoms: _275  and  _277
REMARK  110  A    between atoms: _277  and  _278
REMARK  111  A    between atoms: _277  and  _280
REMARK  112  A    between atoms: _283  and  _285
REMARK  113  A    between atoms: _285  and  _286
REMARK  114  A    between atoms: _285  and  _288
REMARK  115  A    between atoms: _288  and  _289
REMARK  116  A    between atoms: _295  and  _297
REMARK  117  A    between atoms: _297  and  _298
REMARK  118  A    between atoms: _297  and  _300
REMARK  119  A    between atoms: _300  and  _301
REMARK  120  A    between atoms: _307  and  _309
REMARK  121  A    between atoms: _309  and  _310
REMARK  122  A    between atoms: _312  and  _314
REMARK  123  A    between atoms: _314  and  _315
REMARK  124  A    between atoms: _314  and  _317
REMARK  125  A    between atoms: _317  and  _318
REMARK  126  A    between atoms: _318  and  _319
REMARK  127  A    between atoms: _322  and  _324
REMARK  128  A    between atoms: _324  and  _325
REMARK  129  A    between atoms: _324  and  _327
REMARK  130  A    between atoms: _327  and  _328
REMARK  131  A    between atoms: _328  and  _329
REMARK  132  A    between atoms: _329  and  _330
REMARK  133  A    between atoms: _330  and  _331
REMARK  134  A    between atoms: _335  and  _337
REMARK  135  A    between atoms: _337  and  _338
REMARK  136  A    between atoms: _337  and  _340
REMARK  137  A    between atoms: _340  and  _341
REMARK  138  A    between atoms: _344  and  _346
REMARK  139  A    between atoms: _346  and  _347
REMARK  140  A    between atoms: _346  and  _349
REMARK  141  A    between atoms: _349  and  _350
REMARK  142  A    between atoms: _350  and  _351
REMARK  143  A    between atoms: _356  and  _358
REMARK  144  A    between atoms: _358  and  _359
REMARK  145  A    between atoms: _358  and  _361
REMARK  146  A    between atoms: _361  and  _362
REMARK  147  A    between atoms: _365  and  _367
REMARK  148  A    between atoms: _367  and  _368
REMARK  149  A    between atoms: _367  and  _370
REMARK  150  A    between atoms: _370  and  _371
REMARK  151  A    between atoms: _374  and  _376
REMARK  152  A    between atoms: _376  and  _377
REMARK  153  A    between atoms: _379  and  _381
REMARK  154  A    between atoms: _381  and  _382
REMARK  155  A    between atoms: _381  and  _384
REMARK  156  A    between atoms: _388  and  _389
REMARK  157  A    between atoms: _394  and  _396
REMARK  158  A    between atoms: _396  and  _397
REMARK  159  A    between atoms: _396  and  _399
REMARK  160  A    between atoms: _399  and  _400
REMARK  161  A    between atoms: _403  and  _405
REMARK  162  A    between atoms: _405  and  _406
REMARK  163  A    between atoms: _405  and  _408
REMARK  164  A    between atoms: _411  and  _413
REMARK  165  A    between atoms: _413  and  _414
REMARK  166  A    between atoms: _413  and  _416
REMARK  167  A    between atoms: _416  and  _417
REMARK  168  A    between atoms: _417  and  _418
REMARK  169  A    between atoms: _418  and  _419
REMARK  170  A    between atoms: _428  and  _430
REMARK  171  A    between atoms: _430  and  _431
REMARK  172  A    between atoms: _430  and  _433
REMARK  173  A    between atoms: _433  and  _434
REMARK  174  A    between atoms: _437  and  _439
REMARK  175  A    between atoms: _439  and  _440
REMARK  176  A    between atoms: _443  and  _445
REMARK  177  A    between atoms: _445  and  _446
REMARK  178  A    between atoms: _445  and  _448
REMARK  179  A    between atoms: _448  and  _449
REMARK  180  A    between atoms: _449  and  _450
REMARK  181  A    between atoms: _452  and  _454
REMARK  182  A    between atoms: _454  and  _455
REMARK  183  A    between atoms: _454  and  _457
REMARK  184  A    between atoms: _457  and  _458
REMARK  185  A    between atoms: _460  and  _462
REMARK  186  A    between atoms: _462  and  _463
REMARK  187  A    between atoms: _462  and  _465
REMARK  188  A    between atoms: _465  and  _466
REMARK  189  A    between atoms: _468  and  _470
REMARK  190  A    between atoms: _470  and  _471
REMARK  191  A    between atoms: _470  and  _473
REMARK  192  A    between atoms: _473  and  _474
REMARK  193  A    between atoms: _474  and  _475
REMARK  194  A    between atoms: _475  and  _476
REMARK  195  A    between atoms: _485  and  _487
REMARK  196  A    between atoms: _487  and  _488
REMARK  197  A    between atoms: _487  and  _490
REMARK  198  A    between atoms: _490  and  _491
REMARK  199  A    between atoms: _496  and  _498
REMARK  200  A    between atoms: _498  and  _499
REMARK  201  A    between atoms: _498  and  _501
REMARK  202  A    between atoms: _501  and  _502
REMARK  203  A    between atoms: _502  and  _503
REMARK  204  A    between atoms: _503  and  _504
REMARK  205  A    between atoms: _513  and  _515
REMARK  206  A    between atoms: _515  and  _516
REMARK  207  A    between atoms: _515  and  _518
REMARK  208  A    between atoms: _518  and  _519
REMARK  209  A    between atoms: _519  and  _520
REMARK  210  A    between atoms: _520  and  _521
REMARK  211  A    between atoms: _530  and  _532
REMARK  212  A    between atoms: _532  and  _533
REMARK  213  A    between atoms: _532  and  _535
REMARK  214  A    between atoms: _535  and  _536
REMARK  215  A    between atoms: _539  and  _541
REMARK  216  A    between atoms: _541  and  _542
REMARK  217  A    between atoms: _541  and  _544
REMARK  218  A    between atoms: _544  and  _545
REMARK  219  A    between atoms: _548  and  _550
REMARK  220  A    between atoms: _550  and  _551
REMARK  221  A    between atoms: _550  and  _553
REMARK  222  A    between atoms: _553  and  _554
REMARK                            x       y       z     vdW  Elec       q    Type
REMARK                         _______ _______ _______ _____ _____    ______ ____
ROOT
ATOM      1  O   HOH     1      18.798  18.949   6.762  0.00  0.00    +0.000 OA
ENDROOT
TORSDOF 0
REMARK  Name = ../refined-set-2016/3ivx/3ivx_pocket.pdb
REMARK  222 active torsions:
REMARK  status: ('A' for Active; 'I' for Inactive)
REMARK    1  A    between atoms: _1  and  _3
REMARK    2  A    between atoms: _3  and  _4
REMARK    3  A    between atoms: _3  and  _6
REMARK    4  A    between atoms: _6  and  _7
REMARK    5  A    between atoms: _10  and  _12
REMARK    6  A    between atoms: _12  and  _13
REMARK    7  A    between atoms: _12  and  _15
REMARK    8  A    between atoms: _19  and  _20
REMARK    9  A    between atoms: _25  and  _27
REMARK   10  A    between atoms: _27  and  _28
REMARK   11  A    between atoms: _27  and  _30
REMARK   12  A    between atoms: _30  and  _31
REMARK   13  A    between atoms: _34  and  _36
REMARK   14  A    between atoms: _36  and  _37
REMARK   15  A    between atoms: _36  and  _39
REMARK   16  A    between atoms: _39  and  _40
REMARK   17  A    between atoms: _40  and  _41
REMARK   18  A    between atoms: _43  and  _45
REMARK   19  A    between atoms: _45  and  _46
REMARK   20  A    between atoms: _48  and  _50
REMARK   21  A    between atoms: _50  and  _51
REMARK   22  A    between atoms: _54  and  _56
REMARK   23  A    between atoms: _56  and  _57
REMARK   24  A    between atoms: _56  and  _59
REMARK   25  A    between atoms: _59  and  _60
REMARK   26  A    between atoms: _63  and  _65
REMARK   27  A    between atoms: _65  and  _66
REMARK   28  A    between atoms: _65  and  _68
REMARK   29  A    between atoms: _68  and  _69
REMARK   30  A    between atoms: _74  and  _76
REMARK   31  A    between atoms: _76  and  _77
REMARK   32  A    between atoms: _76  and  _79
REMARK   33  A    between atoms: _79  and  _80
REMARK   34  A    between atoms: _80  and  _81
REMARK   35  A    between atoms: _84  and  _86
REMARK   36  A    between atoms: _86  and  _87
REMARK   37  A    between atoms: _89  and  _91
REMARK   38  A    between atoms: _91  and  _92
REMARK   39  A    between atoms: _91  and  _94
REMARK   40  A    between atoms: _94  and  _95
REMARK   41  A    between atoms: _100  and  _102
REMARK   42  A    between atoms: _102  and  _103
REMARK   43  A    between atoms: _102  and  _105
REMARK   44  A    between atoms: _105  and  _106
REMARK   45  A    between atoms: _109  and  _111
REMARK   46  A    between atoms: _111  and  _112
REMARK   47  A    between atoms: _115  and  _117
REMARK   48  A    between atoms: _117  and  _118
REMARK   49  A    between atoms: _117  and  _120
REMARK   50  A    between atoms: _120  and  _121
REMARK   51  A    between atoms: _124  and  _126
REMARK   52  A    between atoms: _126  and  _127
REMARK   53  A    between atoms: _126  and  _129
REMARK   54  A    between atoms: _132  and  _134
REMARK   55  A    between atoms: _134  and  _135
REMARK   56  A    between atoms: _138  and  _140
REMARK   57  A    between atoms: _140  and  _141
REMARK   58  A    between atoms: _140  and  _143
REMARK   59  A    between atoms: _143  and  _144
REMARK   60  A    between atoms: _146  and  _148
REMARK   61  A    between atoms: _148  and  _149
REMARK   62  A    between atoms: _148  and  _151
REMARK   63  A    between atoms: _151  and  _152
REMARK   64  A    between atoms: _155  and  _157
REMARK   65  A    between atoms: _157  and  _158
REMARK   66  A    between atoms: _157  and  _160
REMARK   67  A    between atoms: _160  and  _161
REMARK   68  A    between atoms: _167  and  _169
REMARK   69  A    between atoms: _169  and  _170
REMARK   70  A    between atoms: _169  and  _172
REMARK   71  A    between atoms: _175  and  _177
REMARK   72  A    between atoms: _177  and  _178
REMARK   73  A    between atoms: _177  and  _180
REMARK   74  A    between atoms: _180  and  _181
REMARK   75  A    between atoms: _186  and  _188
REMARK   76  A    between atoms: _188  and  _189
REMARK   77  A    between atoms: _188  and  _191
REMARK   78  A    between atoms: _191  and  _192
REMARK   79  A    between atoms: _192  and  _193
REMARK   80  A    between atoms: _198  and  _200
REMARK   81  A    between atoms: _200  and  _201
REMARK   82  A    between atoms: _200  and  _203
REMARK   83  A    between atoms: _203  and  _204
REMARK   84  A    between atoms: _209  and  _210
REMARK   85  A    between atoms: _213  and  _214
REMARK   86  A    between atoms: _219  and  _221
REMARK   87  A    between atoms: _221  and  _222
REMARK   88  A    between atoms: _224  and  _226
REMARK   89  A    between atoms: _226  and  _227
REMARK   90  A    between atoms: _226  and  _229
REMARK   91  A    between atoms: _232  and  _234
REMARK   92  A    between atoms: _234  and  _235
REMARK   93  A    between atoms: _234  and  _237
REMARK   94  A    between atoms: _237  and  _238
REMARK   95  A    between atoms: _241  and  _243
REMARK   96  A    between atoms: _243  and  _244
REMARK   97  A    between atoms: _243  and  _246
REMARK   98  A    between atoms: _249  and  _251
REMARK   99  A    between atoms: _251  and  _252
REMARK  100  A    between atoms: _251  and  _254
REMARK  101  A    between atoms: _257  and  _259
REMARK  102  A    between atoms: _259  and  _260
REMARK  103  A    between atoms: _259  and  _262
REMARK  104  A    between atoms: _262  and  _263
REMARK  105  A    between atoms: _266  and  _268
REMARK  106  A    between atoms: _268  and  _269
REMARK  107  A    between atoms: _268  and  _271
REMARK  108  A    between atoms: _271  and  _272
REMARK  109  A    between atoms: _275  and  _277
REMARK  110  A    between atoms: _277  and  _278
REMARK  111  A    between atoms: _277  and  _280
REMARK  112  A    between atoms: _283  and  _285
REMARK  113  A    between atoms: _285  and  _286
REMARK  114  A    between atoms: _285  and  _288
REMARK  115  A    between atoms: _288  and  _289
REMARK  116  A    between atoms: _295  and  _297
REMARK  117  A    between atoms: _297  and  _298
REMARK  118  A    between atoms: _297  and  _300
REMARK  119  A    between atoms: _300  and  _301
REMARK  120  A    between atoms: _307  and  _309
REMARK  121  A    between atoms: _309  and  _310
REMARK  122  A    between atoms: _312  and  _314
REMARK  123  A    between atoms: _314  and  _315
REMARK  124  A    between atoms: _314  and  _317
REMARK  125  A    between atoms: _317  and  _318
REMARK  126  A    between atoms: _318  and  _319
REMARK  127  A    between atoms: _322  and  _324
REMARK  128  A    between atoms: _324  and  _325
REMARK  129  A    between atoms: _324  and  _327
REMARK  130  A    between atoms: _327  and  _328
REMARK  131  A    between atoms: _328  and  _329
REMARK  132  A    between atoms: _329  and  _330
REMARK  133  A    between atoms: _330  and  _331
REMARK  134  A    between atoms: _335  and  _337
REMARK  135  A    between atoms: _337  and  _338
REMARK  136  A    between atoms: _337  and  _340
REMARK  137  A    between atoms: _340  and  _341
REMARK  138  A    between atoms: _344  and  _346
REMARK  139  A    between atoms: _346  and  _347
REMARK  140  A    between atoms: _346  and  _349
REMARK  141  A    between atoms: _349  and  _350
REMARK  142  A    between atoms: _350  and  _351
REMARK  143  A    between atoms: _356  and  _358
REMARK  144  A    between atoms: _358  and  _359
REMARK  145  A    between atoms: _358  and  _361
REMARK  146  A    between atoms: _361  and  _362
REMARK  147  A    between atoms: _365  and  _367
REMARK  148  A    between atoms: _367  and  _368
REMARK  149  A    between atoms: _367  and  _370
REMARK  150  A    between atoms: _370  and  _371
REMARK  151  A    between atoms: _374  and  _376
REMARK  152  A    between atoms: _376  and  _377
REMARK  153  A    between atoms: _379  and  _381
REMARK  154  A    between atoms: _381  and  _382
REMARK  155  A    between atoms: _381  and  _384
REMARK  156  A    between atoms: _388  and  _389
REMARK  157  A    between atoms: _394  and  _396
REMARK  158  A    between atoms: _396  and  _397
REMARK  159  A    between atoms: _396  and  _399
REMARK  160  A    between atoms: _399  and  _400
REMARK  161  A    between atoms: _403  and  _405
REMARK  162  A    between atoms: _405  and  _406
REMARK  163  A    between atoms: _405  and  _408
REMARK  164  A    between atoms: _411  and  _413
REMARK  165  A    between atoms: _413  and  _414
REMARK  166  A    between atoms: _413  and  _416
REMARK  167  A    between atoms: _416  and  _417
REMARK  168  A    between atoms: _417  and  _418
REMARK  169  A    between atoms: _418  and  _419
REMARK  170  A    between atoms: _428  and  _430
REMARK  171  A    between atoms: _430  and  _431
REMARK  172  A    between atoms: _430  and  _433
REMARK  173  A    between atoms: _433  and  _434
REMARK  174  A    between atoms: _437  and  _439
REMARK  175  A    between atoms: _439  and  _440
REMARK  176  A    between atoms: _443  and  _445
REMARK  177  A    between atoms: _445  and  _446
REMARK  178  A    between atoms: _445  and  _448
REMARK  179  A    between atoms: _448  and  _449
REMARK  180  A    between atoms: _449  and  _450
REMARK  181  A    between atoms: _452  and  _454
REMARK  182  A    between atoms: _454  and  _455
REMARK  183  A    between atoms: _454  and  _457
REMARK  184  A    between atoms: _457  and  _458
REMARK  185  A    between atoms: _460  and  _462
REMARK  186  A    between atoms: _462  and  _463
REMARK  187  A    between atoms: _462  and  _465
REMARK  188  A    between atoms: _465  and  _466
REMARK  189  A    between atoms: _468  and  _470
REMARK  190  A    between atoms: _470  and  _471
REMARK  191  A    between atoms: _470  and  _473
REMARK  192  A    between atoms: _473  and  _474
REMARK  193  A    between atoms: _474  and  _475
REMARK  194  A    between atoms: _475  and  _476
REMARK  195  A    between atoms: _485  and  _487
REMARK  196  A    between atoms: _487  and  _488
REMARK  197  A    between atoms: _487  and  _490
REMARK  198  A    between atoms: _490  and  _491
REMARK  199  A    between atoms: _496  and  _498
REMARK  200  A    between atoms: _498  and  _499
REMARK  201  A    between atoms: _498  and  _501
REMARK  202  A    between atoms: _501  and  _502
REMARK  203  A    between atoms: _502  and  _503
REMARK  204  A    between atoms: _503  and  _504
REMARK  205  A    between atoms: _513  and  _515
REMARK  206  A    between atoms: _515  and  _516
REMARK  207  A    between atoms: _515  and  _518
REMARK  208  A    between atoms: _518  and  _519
REMARK  209  A    between atoms: _519  and  _520
REMARK  210  A    between atoms: _520  and  _521
REMARK  211  A    between atoms: _530  and  _532
REMARK  212  A    between atoms: _532  and  _533
REMARK  213  A    between atoms: _532  and  _535
REMARK  214  A    between atoms: _535  and  _536
REMARK  215  A    between atoms: _539  and  _541
REMARK  216  A    between atoms: _541  and  _542
REMARK  217  A    between atoms: _541  and  _544
REMARK  218  A    between atoms: _544  and  _545
REMARK  219  A    between atoms: _548  and  _550
REMARK  220  A    between atoms: _550  and  _551
REMARK  221  A    between atoms: _550  and  _553
REMARK  222  A    between atoms: _553  and  _554
REMARK                            x       y       z     vdW  Elec       q    Type
REMARK                         _______ _______ _______ _____ _____    ______ ____
ROOT
ATOM      1  O   HOH     1      12.925   3.250  -8.260  0.00  0.00    +0.000 OA
ENDROOT
TORSDOF 0
REMARK  Name = ../refined-set-2016/3ivx/3ivx_pocket.pdb
REMARK  222 active torsions:
REMARK  status: ('A' for Active; 'I' for Inactive)
REMARK    1  A    between atoms: _1  and  _3
REMARK    2  A    between atoms: _3  and  _4
REMARK    3  A    between atoms: _3  and  _6
REMARK    4  A    between atoms: _6  and  _7
REMARK    5  A    between atoms: _10  and  _12
REMARK    6  A    between atoms: _12  and  _13
REMARK    7  A    between atoms: _12  and  _15
REMARK    8  A    between atoms: _19  and  _20
REMARK    9  A    between atoms: _25  and  _27
REMARK   10  A    between atoms: _27  and  _28
REMARK   11  A    between atoms: _27  and  _30
REMARK   12  A    between atoms: _30  and  _31
REMARK   13  A    between atoms: _34  and  _36
REMARK   14  A    between atoms: _36  and  _37
REMARK   15  A    between atoms: _36  and  _39
REMARK   16  A    between atoms: _39  and  _40
REMARK   17  A    between atoms: _40  and  _41
REMARK   18  A    between atoms: _43  and  _45
REMARK   19  A    between atoms: _45  and  _46
REMARK   20  A    between atoms: _48  and  _50
REMARK   21  A    between atoms: _50  and  _51
REMARK   22  A    between atoms: _54  and  _56
REMARK   23  A    between atoms: _56  and  _57
REMARK   24  A    between atoms: _56  and  _59
REMARK   25  A    between atoms: _59  and  _60
REMARK   26  A    between atoms: _63  and  _65
REMARK   27  A    between atoms: _65  and  _66
REMARK   28  A    between atoms: _65  and  _68
REMARK   29  A    between atoms: _68  and  _69
REMARK   30  A    between atoms: _74  and  _76
REMARK   31  A    between atoms: _76  and  _77
REMARK   32  A    between atoms: _76  and  _79
REMARK   33  A    between atoms: _79  and  _80
REMARK   34  A    between atoms: _80  and  _81
REMARK   35  A    between atoms: _84  and  _86
REMARK   36  A    between atoms: _86  and  _87
REMARK   37  A    between atoms: _89  and  _91
REMARK   38  A    between atoms: _91  and  _92
REMARK   39  A    between atoms: _91  and  _94
REMARK   40  A    between atoms: _94  and  _95
REMARK   41  A    between atoms: _100  and  _102
REMARK   42  A    between atoms: _102  and  _103
REMARK   43  A    between atoms: _102  and  _105
REMARK   44  A    between atoms: _105  and  _106
REMARK   45  A    between atoms: _109  and  _111
REMARK   46  A    between atoms: _111  and  _112
REMARK   47  A    between atoms: _115  and  _117
REMARK   48  A    between atoms: _117  and  _118
REMARK   49  A    between atoms: _117  and  _120
REMARK   50  A    between atoms: _120  and  _121
REMARK   51  A    between atoms: _124  and  _126
REMARK   52  A    between atoms: _126  and  _127
REMARK   53  A    between atoms: _126  and  _129
REMARK   54  A    between atoms: _132  and  _134
REMARK   55  A    between atoms: _134  and  _135
REMARK   56  A    between atoms: _138  and  _140
REMARK   57  A    between atoms: _140  and  _141
REMARK   58  A    between atoms: _140  and  _143
REMARK   59  A    between atoms: _143  and  _144
REMARK   60  A    between atoms: _146  and  _148
REMARK   61  A    between atoms: _148  and  _149
REMARK   62  A    between atoms: _148  and  _151
REMARK   63  A    between atoms: _151  and  _152
REMARK   64  A    between atoms: _155  and  _157
REMARK   65  A    between atoms: _157  and  _158
REMARK   66  A    between atoms: _157  and  _160
REMARK   67  A    between atoms: _160  and  _161
REMARK   68  A    between atoms: _167  and  _169
REMARK   69  A    between atoms: _169  and  _170
REMARK   70  A    between atoms: _169  and  _172
REMARK   71  A    between atoms: _175  and  _177
REMARK   72  A    between atoms: _177  and  _178
REMARK   73  A    between atoms: _177  and  _180
REMARK   74  A    between atoms: _180  and  _181
REMARK   75  A    between atoms: _186  and  _188
REMARK   76  A    between atoms: _188  and  _189
REMARK   77  A    between atoms: _188  and  _191
REMARK   78  A    between atoms: _191  and  _192
REMARK   79  A    between atoms: _192  and  _193
REMARK   80  A    between atoms: _198  and  _200
REMARK   81  A    between atoms: _200  and  _201
REMARK   82  A    between atoms: _200  and  _203
REMARK   83  A    between atoms: _203  and  _204
REMARK   84  A    between atoms: _209  and  _210
REMARK   85  A    between atoms: _213  and  _214
REMARK   86  A    between atoms: _219  and  _221
REMARK   87  A    between atoms: _221  and  _222
REMARK   88  A    between atoms: _224  and  _226
REMARK   89  A    between atoms: _226  and  _227
REMARK   90  A    between atoms: _226  and  _229
REMARK   91  A    between atoms: _232  and  _234
REMARK   92  A    between atoms: _234  and  _235
REMARK   93  A    between atoms: _234  and  _237
REMARK   94  A    between atoms: _237  and  _238
REMARK   95  A    between atoms: _241  and  _243
REMARK   96  A    between atoms: _243  and  _244
REMARK   97  A    between atoms: _243  and  _246
REMARK   98  A    between atoms: _249  and  _251
REMARK   99  A    between atoms: _251  and  _252
REMARK  100  A    between atoms: _251  and  _254
REMARK  101  A    between atoms: _257  and  _259
REMARK  102  A    between atoms: _259  and  _260
REMARK  103  A    between atoms: _259  and  _262
REMARK  104  A    between atoms: _262  and  _263
REMARK  105  A    between atoms: _266  and  _268
REMARK  106  A    between atoms: _268  and  _269
REMARK  107  A    between atoms: _268  and  _271
REMARK  108  A    between atoms: _271  and  _272
REMARK  109  A    between atoms: _275  and  _277
REMARK  110  A    between atoms: _277  and  _278
REMARK  111  A    between atoms: _277  and  _280
REMARK  112  A    between atoms: _283  and  _285
REMARK  113  A    between atoms: _285  and  _286
REMARK  114  A    between atoms: _285  and  _288
REMARK  115  A    between atoms: _288  and  _289
REMARK  116  A    between atoms: _295  and  _297
REMARK  117  A    between atoms: _297  and  _298
REMARK  118  A    between atoms: _297  and  _300
REMARK  119  A    between atoms: _300  and  _301
REMARK  120  A    between atoms: _307  and  _309
REMARK  121  A    between atoms: _309  and  _310
REMARK  122  A    between atoms: _312  and  _314
REMARK  123  A    between atoms: _314  and  _315
REMARK  124  A    between atoms: _314  and  _317
REMARK  125  A    between atoms: _317  and  _318
REMARK  126  A    between atoms: _318  and  _319
REMARK  127  A    between atoms: _322  and  _324
REMARK  128  A    between atoms: _324  and  _325
REMARK  129  A    between atoms: _324  and  _327
REMARK  130  A    between atoms: _327  and  _328
REMARK  131  A    between atoms: _328  and  _329
REMARK  132  A    between atoms: _329  and  _330
REMARK  133  A    between atoms: _330  and  _331
REMARK  134  A    between atoms: _335  and  _337
REMARK  135  A    between atoms: _337  and  _338
REMARK  136  A    between atoms: _337  and  _340
REMARK  137  A    between atoms: _340  and  _341
REMARK  138  A    between atoms: _344  and  _346
REMARK  139  A    between atoms: _346  and  _347
REMARK  140  A    between atoms: _346  and  _349
REMARK  141  A    between atoms: _349  and  _350
REMARK  142  A    between atoms: _350  and  _351
REMARK  143  A    between atoms: _356  and  _358
REMARK  144  A    between atoms: _358  and  _359
REMARK  145  A    between atoms: _358  and  _361
REMARK  146  A    between atoms: _361  and  _362
REMARK  147  A    between atoms: _365  and  _367
REMARK  148  A    between atoms: _367  and  _368
REMARK  149  A    between atoms: _367  and  _370
REMARK  150  A    between atoms: _370  and  _371
REMARK  151  A    between atoms: _374  and  _376
REMARK  152  A    between atoms: _376  and  _377
REMARK  153  A    between atoms: _379  and  _381
REMARK  154  A    between atoms: _381  and  _382
REMARK  155  A    between atoms: _381  and  _384
REMARK  156  A    between atoms: _388  and  _389
REMARK  157  A    between atoms: _394  and  _396
REMARK  158  A    between atoms: _396  and  _397
REMARK  159  A    between atoms: _396  and  _399
REMARK  160  A    between atoms: _399  and  _400
REMARK  161  A    between atoms: _403  and  _405
REMARK  162  A    between atoms: _405  and  _406
REMARK  163  A    between atoms: _405  and  _408
REMARK  164  A    between atoms: _411  and  _413
REMARK  165  A    between atoms: _413  and  _414
REMARK  166  A    between atoms: _413  and  _416
REMARK  167  A    between atoms: _416  and  _417
REMARK  168  A    between atoms: _417  and  _418
REMARK  169  A    between atoms: _418  and  _419
REMARK  170  A    between atoms: _428  and  _430
REMARK  171  A    between atoms: _430  and  _431
REMARK  172  A    between atoms: _430  and  _433
REMARK  173  A    between atoms: _433  and  _434
REMARK  174  A    between atoms: _437  and  _439
REMARK  175  A    between atoms: _439  and  _440
REMARK  176  A    between atoms: _443  and  _445
REMARK  177  A    between atoms: _445  and  _446
REMARK  178  A    between atoms: _445  and  _448
REMARK  179  A    between atoms: _448  and  _449
REMARK  180  A    between atoms: _449  and  _450
REMARK  181  A    between atoms: _452  and  _454
REMARK  182  A    between atoms: _454  and  _455
REMARK  183  A    between atoms: _454  and  _457
REMARK  184  A    between atoms: _457  and  _458
REMARK  185  A    between atoms: _460  and  _462
REMARK  186  A    between atoms: _462  and  _463
REMARK  187  A    between atoms: _462  and  _465
REMARK  188  A    between atoms: _465  and  _466
REMARK  189  A    between atoms: _468  and  _470
REMARK  190  A    between atoms: _470  and  _471
REMARK  191  A    between atoms: _470  and  _473
REMARK  192  A    between atoms: _473  and  _474
REMARK  193  A    between atoms: _474  and  _475
REMARK  194  A    between atoms: _475  and  _476
REMARK  195  A    between atoms: _485  and  _487
REMARK  196  A    between atoms: _487  and  _488
REMARK  197  A    between atoms: _487  and  _490
REMARK  198  A    between atoms: _490  and  _491
REMARK  199  A    between atoms: _496  and  _498
REMARK  200  A    between atoms: _498  and  _499
REMARK  201  A    between atoms: _498  and  _501
REMARK  202  A    between atoms: _501  and  _502
REMARK  203  A    between atoms: _502  and  _503
REMARK  204  A    between atoms: _503  and  _504
REMARK  205  A    between atoms: _513  and  _515
REMARK  206  A    between atoms: _515  and  _516
REMARK  207  A    between atoms: _515  and  _518
REMARK  208  A    between atoms: _518  and  _519
REMARK  209  A    between atoms: _519  and  _520
REMARK  210  A    between atoms: _520  and  _521
REMARK  211  A    between atoms: _530  and  _532
REMARK  212  A    between atoms: _532  and  _533
REMARK  213  A    between atoms: _532  and  _535
REMARK  214  A    between atoms: _535  and  _536
REMARK  215  A    between atoms: _539  and  _541
REMARK  216  A    between atoms: _541  and  _542
REMARK  217  A    between atoms: _541  and  _544
REMARK  218  A    between atoms: _544  and  _545
REMARK  219  A    between atoms: _548  and  _550
REMARK  220  A    between atoms: _550  and  _551
REMARK  221  A    between atoms: _550  and  _553
REMARK  222  A    between atoms: _553  and  _554
REMARK                            x       y       z     vdW  Elec       q    Type
REMARK                         _______ _______ _______ _____ _____    ______ ____
ROOT
ATOM      1  O   HOH     1      22.595  17.091  -3.549  0.00  0.00    +0.000 OA
ENDROOT
TORSDOF 0
REMARK  Name = ../refined-set-2016/3ivx/3ivx_pocket.pdb
REMARK  222 active torsions:
REMARK  status: ('A' for Active; 'I' for Inactive)
REMARK    1  A    between atoms: _1  and  _3
REMARK    2  A    between atoms: _3  and  _4
REMARK    3  A    between atoms: _3  and  _6
REMARK    4  A    between atoms: _6  and  _7
REMARK    5  A    between atoms: _10  and  _12
REMARK    6  A    between atoms: _12  and  _13
REMARK    7  A    between atoms: _12  and  _15
REMARK    8  A    between atoms: _19  and  _20
REMARK    9  A    between atoms: _25  and  _27
REMARK   10  A    between atoms: _27  and  _28
REMARK   11  A    between atoms: _27  and  _30
REMARK   12  A    between atoms: _30  and  _31
REMARK   13  A    between atoms: _34  and  _36
REMARK   14  A    between atoms: _36  and  _37
REMARK   15  A    between atoms: _36  and  _39
REMARK   16  A    between atoms: _39  and  _40
REMARK   17  A    between atoms: _40  and  _41
REMARK   18  A    between atoms: _43  and  _45
REMARK   19  A    between atoms: _45  and  _46
REMARK   20  A    between atoms: _48  and  _50
REMARK   21  A    between atoms: _50  and  _51
REMARK   22  A    between atoms: _54  and  _56
REMARK   23  A    between atoms: _56  and  _57
REMARK   24  A    between atoms: _56  and  _59
REMARK   25  A    between atoms: _59  and  _60
REMARK   26  A    between atoms: _63  and  _65
REMARK   27  A    between atoms: _65  and  _66
REMARK   28  A    between atoms: _65  and  _68
REMARK   29  A    between atoms: _68  and  _69
REMARK   30  A    between atoms: _74  and  _76
REMARK   31  A    between atoms: _76  and  _77
REMARK   32  A    between atoms: _76  and  _79
REMARK   33  A    between atoms: _79  and  _80
REMARK   34  A    between atoms: _80  and  _81
REMARK   35  A    between atoms: _84  and  _86
REMARK   36  A    between atoms: _86  and  _87
REMARK   37  A    between atoms: _89  and  _91
REMARK   38  A    between atoms: _91  and  _92
REMARK   39  A    between atoms: _91  and  _94
REMARK   40  A    between atoms: _94  and  _95
REMARK   41  A    between atoms: _100  and  _102
REMARK   42  A    between atoms: _102  and  _103
REMARK   43  A    between atoms: _102  and  _105
REMARK   44  A    between atoms: _105  and  _106
REMARK   45  A    between atoms: _109  and  _111
REMARK   46  A    between atoms: _111  and  _112
REMARK   47  A    between atoms: _115  and  _117
REMARK   48  A    between atoms: _117  and  _118
REMARK   49  A    between atoms: _117  and  _120
REMARK   50  A    between atoms: _120  and  _121
REMARK   51  A    between atoms: _124  and  _126
REMARK   52  A    between atoms: _126  and  _127
REMARK   53  A    between atoms: _126  and  _129
REMARK   54  A    between atoms: _132  and  _134
REMARK   55  A    between atoms: _134  and  _135
REMARK   56  A    between atoms: _138  and  _140
REMARK   57  A    between atoms: _140  and  _141
REMARK   58  A    between atoms: _140  and  _143
REMARK   59  A    between atoms: _143  and  _144
REMARK   60  A    between atoms: _146  and  _148
REMARK   61  A    between atoms: _148  and  _149
REMARK   62  A    between atoms: _148  and  _151
REMARK   63  A    between atoms: _151  and  _152
REMARK   64  A    between atoms: _155  and  _157
REMARK   65  A    between atoms: _157  and  _158
REMARK   66  A    between atoms: _157  and  _160
REMARK   67  A    between atoms: _160  and  _161
REMARK   68  A    between atoms: _167  and  _169
REMARK   69  A    between atoms: _169  and  _170
REMARK   70  A    between atoms: _169  and  _172
REMARK   71  A    between atoms: _175  and  _177
REMARK   72  A    between atoms: _177  and  _178
REMARK   73  A    between atoms: _177  and  _180
REMARK   74  A    between atoms: _180  and  _181
REMARK   75  A    between atoms: _186  and  _188
REMARK   76  A    between atoms: _188  and  _189
REMARK   77  A    between atoms: _188  and  _191
REMARK   78  A    between atoms: _191  and  _192
REMARK   79  A    between atoms: _192  and  _193
REMARK   80  A    between atoms: _198  and  _200
REMARK   81  A    between atoms: _200  and  _201
REMARK   82  A    between atoms: _200  and  _203
REMARK   83  A    between atoms: _203  and  _204
REMARK   84  A    between atoms: _209  and  _210
REMARK   85  A    between atoms: _213  and  _214
REMARK   86  A    between atoms: _219  and  _221
REMARK   87  A    between atoms: _221  and  _222
REMARK   88  A    between atoms: _224  and  _226
REMARK   89  A    between atoms: _226  and  _227
REMARK   90  A    between atoms: _226  and  _229
REMARK   91  A    between atoms: _232  and  _234
REMARK   92  A    between atoms: _234  and  _235
REMARK   93  A    between atoms: _234  and  _237
REMARK   94  A    between atoms: _237  and  _238
REMARK   95  A    between atoms: _241  and  _243
REMARK   96  A    between atoms: _243  and  _244
REMARK   97  A    between atoms: _243  and  _246
REMARK   98  A    between atoms: _249  and  _251
REMARK   99  A    between atoms: _251  and  _252
REMARK  100  A    between atoms: _251  and  _254
REMARK  101  A    between atoms: _257  and  _259
REMARK  102  A    between atoms: _259  and  _260
REMARK  103  A    between atoms: _259  and  _262
REMARK  104  A    between atoms: _262  and  _263
REMARK  105  A    between atoms: _266  and  _268
REMARK  106  A    between atoms: _268  and  _269
REMARK  107  A    between atoms: _268  and  _271
REMARK  108  A    between atoms: _271  and  _272
REMARK  109  A    between atoms: _275  and  _277
REMARK  110  A    between atoms: _277  and  _278
REMARK  111  A    between atoms: _277  and  _280
REMARK  112  A    between atoms: _283  and  _285
REMARK  113  A    between atoms: _285  and  _286
REMARK  114  A    between atoms: _285  and  _288
REMARK  115  A    between atoms: _288  and  _289
REMARK  116  A    between atoms: _295  and  _297
REMARK  117  A    between atoms: _297  and  _298
REMARK  118  A    between atoms: _297  and  _300
REMARK  119  A    between atoms: _300  and  _301
REMARK  120  A    between atoms: _307  and  _309
REMARK  121  A    between atoms: _309  and  _310
REMARK  122  A    between atoms: _312  and  _314
REMARK  123  A    between atoms: _314  and  _315
REMARK  124  A    between atoms: _314  and  _317
REMARK  125  A    between atoms: _317  and  _318
REMARK  126  A    between atoms: _318  and  _319
REMARK  127  A    between atoms: _322  and  _324
REMARK  128  A    between atoms: _324  and  _325
REMARK  129  A    between atoms: _324  and  _327
REMARK  130  A    between atoms: _327  and  _328
REMARK  131  A    between atoms: _328  and  _329
REMARK  132  A    between atoms: _329  and  _330
REMARK  133  A    between atoms: _330  and  _331
REMARK  134  A    between atoms: _335  and  _337
REMARK  135  A    between atoms: _337  and  _338
REMARK  136  A    between atoms: _337  and  _340
REMARK  137  A    between atoms: _340  and  _341
REMARK  138  A    between atoms: _344  and  _346
REMARK  139  A    between atoms: _346  and  _347
REMARK  140  A    between atoms: _346  and  _349
REMARK  141  A    between atoms: _349  and  _350
REMARK  142  A    between atoms: _350  and  _351
REMARK  143  A    between atoms: _356  and  _358
REMARK  144  A    between atoms: _358  and  _359
REMARK  145  A    between atoms: _358  and  _361
REMARK  146  A    between atoms: _361  and  _362
REMARK  147  A    between atoms: _365  and  _367
REMARK  148  A    between atoms: _367  and  _368
REMARK  149  A    between atoms: _367  and  _370
REMARK  150  A    between atoms: _370  and  _371
REMARK  151  A    between atoms: _374  and  _376
REMARK  152  A    between atoms: _376  and  _377
REMARK  153  A    between atoms: _379  and  _381
REMARK  154  A    between atoms: _381  and  _382
REMARK  155  A    between atoms: _381  and  _384
REMARK  156  A    between atoms: _388  and  _389
REMARK  157  A    between atoms: _394  and  _396
REMARK  158  A    between atoms: _396  and  _397
REMARK  159  A    between atoms: _396  and  _399
REMARK  160  A    between atoms: _399  and  _400
REMARK  161  A    between atoms: _403  and  _405
REMARK  162  A    between atoms: _405  and  _406
REMARK  163  A    between atoms: _405  and  _408
REMARK  164  A    between atoms: _411  and  _413
REMARK  165  A    between atoms: _413  and  _414
REMARK  166  A    between atoms: _413  and  _416
REMARK  167  A    between atoms: _416  and  _417
REMARK  168  A    between atoms: _417  and  _418
REMARK  169  A    between atoms: _418  and  _419
REMARK  170  A    between atoms: _428  and  _430
REMARK  171  A    between atoms: _430  and  _431
REMARK  172  A    between atoms: _430  and  _433
REMARK  173  A    between atoms: _433  and  _434
REMARK  174  A    between atoms: _437  and  _439
REMARK  175  A    between atoms: _439  and  _440
REMARK  176  A    between atoms: _443  and  _445
REMARK  177  A    between atoms: _445  and  _446
REMARK  178  A    between atoms: _445  and  _448
REMARK  179  A    between atoms: _448  and  _449
REMARK  180  A    between atoms: _449  and  _450
REMARK  181  A    between atoms: _452  and  _454
REMARK  182  A    between atoms: _454  and  _455
REMARK  183  A    between atoms: _454  and  _457
REMARK  184  A    between atoms: _457  and  _458
REMARK  185  A    between atoms: _460  and  _462
REMARK  186  A    between atoms: _462  and  _463
REMARK  187  A    between atoms: _462  and  _465
REMARK  188  A    between atoms: _465  and  _466
REMARK  189  A    between atoms: _468  and  _470
REMARK  190  A    between atoms: _470  and  _471
REMARK  191  A    between atoms: _470  and  _473
REMARK  192  A    between atoms: _473  and  _474
REMARK  193  A    between atoms: _474  and  _475
REMARK  194  A    between atoms: _475  and  _476
REMARK  195  A    between atoms: _485  and  _487
REMARK  196  A    between atoms: _487  and  _488
REMARK  197  A    between atoms: _487  and  _490
REMARK  198  A    between atoms: _490  and  _491
REMARK  199  A    between atoms: _496  and  _498
REMARK  200  A    between atoms: _498  and  _499
REMARK  201  A    between atoms: _498  and  _501
REMARK  202  A    between atoms: _501  and  _502
REMARK  203  A    between atoms: _502  and  _503
REMARK  204  A    between atoms: _503  and  _504
REMARK  205  A    between atoms: _513  and  _515
REMARK  206  A    between atoms: _515  and  _516
REMARK  207  A    between atoms: _515  and  _518
REMARK  208  A    between atoms: _518  and  _519
REMARK  209  A    between atoms: _519  and  _520
REMARK  210  A    between atoms: _520  and  _521
REMARK  211  A    between atoms: _530  and  _532
REMARK  212  A    between atoms: _532  and  _533
REMARK  213  A    between atoms: _532  and  _535
REMARK  214  A    between atoms: _535  and  _536
REMARK  215  A    between atoms: _539  and  _541
REMARK  216  A    between atoms: _541  and  _542
REMARK  217  A    between atoms: _541  and  _544
REMARK  218  A    between atoms: _544  and  _545
REMARK  219  A    between atoms: _548  and  _550
REMARK  220  A    between atoms: _550  and  _551
REMARK  221  A    between atoms: _550  and  _553
REMARK  222  A    between atoms: _553  and  _554
REMARK                            x       y       z     vdW  Elec       q    Type
REMARK                         _______ _______ _______ _____ _____    ______ ____
ROOT
ATOM      1  O   HOH     1      13.721   5.455 -11.223  0.00  0.00    +0.000 OA
ENDROOT
TORSDOF 0
REMARK  Name = ../refined-set-2016/3ivx/3ivx_pocket.pdb
REMARK  222 active torsions:
REMARK  status: ('A' for Active; 'I' for Inactive)
REMARK    1  A    between atoms: _1  and  _3
REMARK    2  A    between atoms: _3  and  _4
REMARK    3  A    between atoms: _3  and  _6
REMARK    4  A    between atoms: _6  and  _7
REMARK    5  A    between atoms: _10  and  _12
REMARK    6  A    between atoms: _12  and  _13
REMARK    7  A    between atoms: _12  and  _15
REMARK    8  A    between atoms: _19  and  _20
REMARK    9  A    between atoms: _25  and  _27
REMARK   10  A    between atoms: _27  and  _28
REMARK   11  A    between atoms: _27  and  _30
REMARK   12  A    between atoms: _30  and  _31
REMARK   13  A    between atoms: _34  and  _36
REMARK   14  A    between atoms: _36  and  _37
REMARK   15  A    between atoms: _36  and  _39
REMARK   16  A    between atoms: _39  and  _40
REMARK   17  A    between atoms: _40  and  _41
REMARK   18  A    between atoms: _43  and  _45
REMARK   19  A    between atoms: _45  and  _46
REMARK   20  A    between atoms: _48  and  _50
REMARK   21  A    between atoms: _50  and  _51
REMARK   22  A    between atoms: _54  and  _56
REMARK   23  A    between atoms: _56  and  _57
REMARK   24  A    between atoms: _56  and  _59
REMARK   25  A    between atoms: _59  and  _60
REMARK   26  A    between atoms: _63  and  _65
REMARK   27  A    between atoms: _65  and  _66
REMARK   28  A    between atoms: _65  and  _68
REMARK   29  A    between atoms: _68  and  _69
REMARK   30  A    between atoms: _74  and  _76
REMARK   31  A    between atoms: _76  and  _77
REMARK   32  A    between atoms: _76  and  _79
REMARK   33  A    between atoms: _79  and  _80
REMARK   34  A    between atoms: _80  and  _81
REMARK   35  A    between atoms: _84  and  _86
REMARK   36  A    between atoms: _86  and  _87
REMARK   37  A    between atoms: _89  and  _91
REMARK   38  A    between atoms: _91  and  _92
REMARK   39  A    between atoms: _91  and  _94
REMARK   40  A    between atoms: _94  and  _95
REMARK   41  A    between atoms: _100  and  _102
REMARK   42  A    between atoms: _102  and  _103
REMARK   43  A    between atoms: _102  and  _105
REMARK   44  A    between atoms: _105  and  _106
REMARK   45  A    between atoms: _109  and  _111
REMARK   46  A    between atoms: _111  and  _112
REMARK   47  A    between atoms: _115  and  _117
REMARK   48  A    between atoms: _117  and  _118
REMARK   49  A    between atoms: _117  and  _120
REMARK   50  A    between atoms: _120  and  _121
REMARK   51  A    between atoms: _124  and  _126
REMARK   52  A    between atoms: _126  and  _127
REMARK   53  A    between atoms: _126  and  _129
REMARK   54  A    between atoms: _132  and  _134
REMARK   55  A    between atoms: _134  and  _135
REMARK   56  A    between atoms: _138  and  _140
REMARK   57  A    between atoms: _140  and  _141
REMARK   58  A    between atoms: _140  and  _143
REMARK   59  A    between atoms: _143  and  _144
REMARK   60  A    between atoms: _146  and  _148
REMARK   61  A    between atoms: _148  and  _149
REMARK   62  A    between atoms: _148  and  _151
REMARK   63  A    between atoms: _151  and  _152
REMARK   64  A    between atoms: _155  and  _157
REMARK   65  A    between atoms: _157  and  _158
REMARK   66  A    between atoms: _157  and  _160
REMARK   67  A    between atoms: _160  and  _161
REMARK   68  A    between atoms: _167  and  _169
REMARK   69  A    between atoms: _169  and  _170
REMARK   70  A    between atoms: _169  and  _172
REMARK   71  A    between atoms: _175  and  _177
REMARK   72  A    between atoms: _177  and  _178
REMARK   73  A    between atoms: _177  and  _180
REMARK   74  A    between atoms: _180  and  _181
REMARK   75  A    between atoms: _186  and  _188
REMARK   76  A    between atoms: _188  and  _189
REMARK   77  A    between atoms: _188  and  _191
REMARK   78  A    between atoms: _191  and  _192
REMARK   79  A    between atoms: _192  and  _193
REMARK   80  A    between atoms: _198  and  _200
REMARK   81  A    between atoms: _200  and  _201
REMARK   82  A    between atoms: _200  and  _203
REMARK   83  A    between atoms: _203  and  _204
REMARK   84  A    between atoms: _209  and  _210
REMARK   85  A    between atoms: _213  and  _214
REMARK   86  A    between atoms: _219  and  _221
REMARK   87  A    between atoms: _221  and  _222
REMARK   88  A    between atoms: _224  and  _226
REMARK   89  A    between atoms: _226  and  _227
REMARK   90  A    between atoms: _226  and  _229
REMARK   91  A    between atoms: _232  and  _234
REMARK   92  A    between atoms: _234  and  _235
REMARK   93  A    between atoms: _234  and  _237
REMARK   94  A    between atoms: _237  and  _238
REMARK   95  A    between atoms: _241  and  _243
REMARK   96  A    between atoms: _243  and  _244
REMARK   97  A    between atoms: _243  and  _246
REMARK   98  A    between atoms: _249  and  _251
REMARK   99  A    between atoms: _251  and  _252
REMARK  100  A    between atoms: _251  and  _254
REMARK  101  A    between atoms: _257  and  _259
REMARK  102  A    between atoms: _259  and  _260
REMARK  103  A    between atoms: _259  and  _262
REMARK  104  A    between atoms: _262  and  _263
REMARK  105  A    between atoms: _266  and  _268
REMARK  106  A    between atoms: _268  and  _269
REMARK  107  A    between atoms: _268  and  _271
REMARK  108  A    between atoms: _271  and  _272
REMARK  109  A    between atoms: _275  and  _277
REMARK  110  A    between atoms: _277  and  _278
REMARK  111  A    between atoms: _277  and  _280
REMARK  112  A    between atoms: _283  and  _285
REMARK  113  A    between atoms: _285  and  _286
REMARK  114  A    between atoms: _285  and  _288
REMARK  115  A    between atoms: _288  and  _289
REMARK  116  A    between atoms: _295  and  _297
REMARK  117  A    between atoms: _297  and  _298
REMARK  118  A    between atoms: _297  and  _300
REMARK  119  A    between atoms: _300  and  _301
REMARK  120  A    between atoms: _307  and  _309
REMARK  121  A    between atoms: _309  and  _310
REMARK  122  A    between atoms: _312  and  _314
REMARK  123  A    between atoms: _314  and  _315
REMARK  124  A    between atoms: _314  and  _317
REMARK  125  A    between atoms: _317  and  _318
REMARK  126  A    between atoms: _318  and  _319
REMARK  127  A    between atoms: _322  and  _324
REMARK  128  A    between atoms: _324  and  _325
REMARK  129  A    between atoms: _324  and  _327
REMARK  130  A    between atoms: _327  and  _328
REMARK  131  A    between atoms: _328  and  _329
REMARK  132  A    between atoms: _329  and  _330
REMARK  133  A    between atoms: _330  and  _331
REMARK  134  A    between atoms: _335  and  _337
REMARK  135  A    between atoms: _337  and  _338
REMARK  136  A    between atoms: _337  and  _340
REMARK  137  A    between atoms: _340  and  _341
REMARK  138  A    between atoms: _344  and  _346
REMARK  139  A    between atoms: _346  and  _347
REMARK  140  A    between atoms: _346  and  _349
REMARK  141  A    between atoms: _349  and  _350
REMARK  142  A    between atoms: _350  and  _351
REMARK  143  A    between atoms: _356  and  _358
REMARK  144  A    between atoms: _358  and  _359
REMARK  145  A    between atoms: _358  and  _361
REMARK  146  A    between atoms: _361  and  _362
REMARK  147  A    between atoms: _365  and  _367
REMARK  148  A    between atoms: _367  and  _368
REMARK  149  A    between atoms: _367  and  _370
REMARK  150  A    between atoms: _370  and  _371
REMARK  151  A    between atoms: _374  and  _376
REMARK  152  A    between atoms: _376  and  _377
REMARK  153  A    between atoms: _379  and  _381
REMARK  154  A    between atoms: _381  and  _382
REMARK  155  A    between atoms: _381  and  _384
REMARK  156  A    between atoms: _388  and  _389
REMARK  157  A    between atoms: _394  and  _396
REMARK  158  A    between atoms: _396  and  _397
REMARK  159  A    between atoms: _396  and  _399
REMARK  160  A    between atoms: _399  and  _400
REMARK  161  A    between atoms: _403  and  _405
REMARK  162  A    between atoms: _405  and  _406
REMARK  163  A    between atoms: _405  and  _408
REMARK  164  A    between atoms: _411  and  _413
REMARK  165  A    between atoms: _413  and  _414
REMARK  166  A    between atoms: _413  and  _416
REMARK  167  A    between atoms: _416  and  _417
REMARK  168  A    between atoms: _417  and  _418
REMARK  169  A    between atoms: _418  and  _419
REMARK  170  A    between atoms: _428  and  _430
REMARK  171  A    between atoms: _430  and  _431
REMARK  172  A    between atoms: _430  and  _433
REMARK  173  A    between atoms: _433  and  _434
REMARK  174  A    between atoms: _437  and  _439
REMARK  175  A    between atoms: _439  and  _440
REMARK  176  A    between atoms: _443  and  _445
REMARK  177  A    between atoms: _445  and  _446
REMARK  178  A    between atoms: _445  and  _448
REMARK  179  A    between atoms: _448  and  _449
REMARK  180  A    between atoms: _449  and  _450
REMARK  181  A    between atoms: _452  and  _454
REMARK  182  A    between atoms: _454  and  _455
REMARK  183  A    between atoms: _454  and  _457
REMARK  184  A    between atoms: _457  and  _458
REMARK  185  A    between atoms: _460  and  _462
REMARK  186  A    between atoms: _462  and  _463
REMARK  187  A    between atoms: _462  and  _465
REMARK  188  A    between atoms: _465  and  _466
REMARK  189  A    between atoms: _468  and  _470
REMARK  190  A    between atoms: _470  and  _471
REMARK  191  A    between atoms: _470  and  _473
REMARK  192  A    between atoms: _473  and  _474
REMARK  193  A    between atoms: _474  and  _475
REMARK  194  A    between atoms: _475  and  _476
REMARK  195  A    between atoms: _485  and  _487
REMARK  196  A    between atoms: _487  and  _488
REMARK  197  A    between atoms: _487  and  _490
REMARK  198  A    between atoms: _490  and  _491
REMARK  199  A    between atoms: _496  and  _498
REMARK  200  A    between atoms: _498  and  _499
REMARK  201  A    between atoms: _498  and  _501
REMARK  202  A    between atoms: _501  and  _502
REMARK  203  A    between atoms: _502  and  _503
REMARK  204  A    between atoms: _503  and  _504
REMARK  205  A    between atoms: _513  and  _515
REMARK  206  A    between atoms: _515  and  _516
REMARK  207  A    between atoms: _515  and  _518
REMARK  208  A    between atoms: _518  and  _519
REMARK  209  A    between atoms: _519  and  _520
REMARK  210  A    between atoms: _520  and  _521
REMARK  211  A    between atoms: _530  and  _532
REMARK  212  A    between atoms: _532  and  _533
REMARK  213  A    between atoms: _532  and  _535
REMARK  214  A    between atoms: _535  and  _536
REMARK  215  A    between atoms: _539  and  _541
REMARK  216  A    between atoms: _541  and  _542
REMARK  217  A    between atoms: _541  and  _544
REMARK  218  A    between atoms: _544  and  _545
REMARK  219  A    between atoms: _548  and  _550
REMARK  220  A    between atoms: _550  and  _551
REMARK  221  A    between atoms: _550  and  _553
REMARK  222  A    between atoms: _553  and  _554
REMARK                            x       y       z     vdW  Elec       q    Type
REMARK                         _______ _______ _______ _____ _____    ______ ____
ROOT
ATOM      1  O   HOH     1      12.710   8.450   1.622  0.00  0.00    +0.000 OA
ENDROOT
TORSDOF 0
REMARK  Name = ../refined-set-2016/3ivx/3ivx_pocket.pdb
REMARK  222 active torsions:
REMARK  status: ('A' for Active; 'I' for Inactive)
REMARK    1  A    between atoms: _1  and  _3
REMARK    2  A    between atoms: _3  and  _4
REMARK    3  A    between atoms: _3  and  _6
REMARK    4  A    between atoms: _6  and  _7
REMARK    5  A    between atoms: _10  and  _12
REMARK    6  A    between atoms: _12  and  _13
REMARK    7  A    between atoms: _12  and  _15
REMARK    8  A    between atoms: _19  and  _20
REMARK    9  A    between atoms: _25  and  _27
REMARK   10  A    between atoms: _27  and  _28
REMARK   11  A    between atoms: _27  and  _30
REMARK   12  A    between atoms: _30  and  _31
REMARK   13  A    between atoms: _34  and  _36
REMARK   14  A    between atoms: _36  and  _37
REMARK   15  A    between atoms: _36  and  _39
REMARK   16  A    between atoms: _39  and  _40
REMARK   17  A    between atoms: _40  and  _41
REMARK   18  A    between atoms: _43  and  _45
REMARK   19  A    between atoms: _45  and  _46
REMARK   20  A    between atoms: _48  and  _50
REMARK   21  A    between atoms: _50  and  _51
REMARK   22  A    between atoms: _54  and  _56
REMARK   23  A    between atoms: _56  and  _57
REMARK   24  A    between atoms: _56  and  _59
REMARK   25  A    between atoms: _59  and  _60
REMARK   26  A    between atoms: _63  and  _65
REMARK   27  A    between atoms: _65  and  _66
REMARK   28  A    between atoms: _65  and  _68
REMARK   29  A    between atoms: _68  and  _69
REMARK   30  A    between atoms: _74  and  _76
REMARK   31  A    between atoms: _76  and  _77
REMARK   32  A    between atoms: _76  and  _79
REMARK   33  A    between atoms: _79  and  _80
REMARK   34  A    between atoms: _80  and  _81
REMARK   35  A    between atoms: _84  and  _86
REMARK   36  A    between atoms: _86  and  _87
REMARK   37  A    between atoms: _89  and  _91
REMARK   38  A    between atoms: _91  and  _92
REMARK   39  A    between atoms: _91  and  _94
REMARK   40  A    between atoms: _94  and  _95
REMARK   41  A    between atoms: _100  and  _102
REMARK   42  A    between atoms: _102  and  _103
REMARK   43  A    between atoms: _102  and  _105
REMARK   44  A    between atoms: _105  and  _106
REMARK   45  A    between atoms: _109  and  _111
REMARK   46  A    between atoms: _111  and  _112
REMARK   47  A    between atoms: _115  and  _117
REMARK   48  A    between atoms: _117  and  _118
REMARK   49  A    between atoms: _117  and  _120
REMARK   50  A    between atoms: _120  and  _121
REMARK   51  A    between atoms: _124  and  _126
REMARK   52  A    between atoms: _126  and  _127
REMARK   53  A    between atoms: _126  and  _129
REMARK   54  A    between atoms: _132  and  _134
REMARK   55  A    between atoms: _134  and  _135
REMARK   56  A    between atoms: _138  and  _140
REMARK   57  A    between atoms: _140  and  _141
REMARK   58  A    between atoms: _140  and  _143
REMARK   59  A    between atoms: _143  and  _144
REMARK   60  A    between atoms: _146  and  _148
REMARK   61  A    between atoms: _148  and  _149
REMARK   62  A    between atoms: _148  and  _151
REMARK   63  A    between atoms: _151  and  _152
REMARK   64  A    between atoms: _155  and  _157
REMARK   65  A    between atoms: _157  and  _158
REMARK   66  A    between atoms: _157  and  _160
REMARK   67  A    between atoms: _160  and  _161
REMARK   68  A    between atoms: _167  and  _169
REMARK   69  A    between atoms: _169  and  _170
REMARK   70  A    between atoms: _169  and  _172
REMARK   71  A    between atoms: _175  and  _177
REMARK   72  A    between atoms: _177  and  _178
REMARK   73  A    between atoms: _177  and  _180
REMARK   74  A    between atoms: _180  and  _181
REMARK   75  A    between atoms: _186  and  _188
REMARK   76  A    between atoms: _188  and  _189
REMARK   77  A    between atoms: _188  and  _191
REMARK   78  A    between atoms: _191  and  _192
REMARK   79  A    between atoms: _192  and  _193
REMARK   80  A    between atoms: _198  and  _200
REMARK   81  A    between atoms: _200  and  _201
REMARK   82  A    between atoms: _200  and  _203
REMARK   83  A    between atoms: _203  and  _204
REMARK   84  A    between atoms: _209  and  _210
REMARK   85  A    between atoms: _213  and  _214
REMARK   86  A    between atoms: _219  and  _221
REMARK   87  A    between atoms: _221  and  _222
REMARK   88  A    between atoms: _224  and  _226
REMARK   89  A    between atoms: _226  and  _227
REMARK   90  A    between atoms: _226  and  _229
REMARK   91  A    between atoms: _232  and  _234
REMARK   92  A    between atoms: _234  and  _235
REMARK   93  A    between atoms: _234  and  _237
REMARK   94  A    between atoms: _237  and  _238
REMARK   95  A    between atoms: _241  and  _243
REMARK   96  A    between atoms: _243  and  _244
REMARK   97  A    between atoms: _243  and  _246
REMARK   98  A    between atoms: _249  and  _251
REMARK   99  A    between atoms: _251  and  _252
REMARK  100  A    between atoms: _251  and  _254
REMARK  101  A    between atoms: _257  and  _259
REMARK  102  A    between atoms: _259  and  _260
REMARK  103  A    between atoms: _259  and  _262
REMARK  104  A    between atoms: _262  and  _263
REMARK  105  A    between atoms: _266  and  _268
REMARK  106  A    between atoms: _268  and  _269
REMARK  107  A    between atoms: _268  and  _271
REMARK  108  A    between atoms: _271  and  _272
REMARK  109  A    between atoms: _275  and  _277
REMARK  110  A    between atoms: _277  and  _278
REMARK  111  A    between atoms: _277  and  _280
REMARK  112  A    between atoms: _283  and  _285
REMARK  113  A    between atoms: _285  and  _286
REMARK  114  A    between atoms: _285  and  _288
REMARK  115  A    between atoms: _288  and  _289
REMARK  116  A    between atoms: _295  and  _297
REMARK  117  A    between atoms: _297  and  _298
REMARK  118  A    between atoms: _297  and  _300
REMARK  119  A    between atoms: _300  and  _301
REMARK  120  A    between atoms: _307  and  _309
REMARK  121  A    between atoms: _309  and  _310
REMARK  122  A    between atoms: _312  and  _314
REMARK  123  A    between atoms: _314  and  _315
REMARK  124  A    between atoms: _314  and  _317
REMARK  125  A    between atoms: _317  and  _318
REMARK  126  A    between atoms: _318  and  _319
REMARK  127  A    between atoms: _322  and  _324
REMARK  128  A    between atoms: _324  and  _325
REMARK  129  A    between atoms: _324  and  _327
REMARK  130  A    between atoms: _327  and  _328
REMARK  131  A    between atoms: _328  and  _329
REMARK  132  A    between atoms: _329  and  _330
REMARK  133  A    between atoms: _330  and  _331
REMARK  134  A    between atoms: _335  and  _337
REMARK  135  A    between atoms: _337  and  _338
REMARK  136  A    between atoms: _337  and  _340
REMARK  137  A    between atoms: _340  and  _341
REMARK  138  A    between atoms: _344  and  _346
REMARK  139  A    between atoms: _346  and  _347
REMARK  140  A    between atoms: _346  and  _349
REMARK  141  A    between atoms: _349  and  _350
REMARK  142  A    between atoms: _350  and  _351
REMARK  143  A    between atoms: _356  and  _358
REMARK  144  A    between atoms: _358  and  _359
REMARK  145  A    between atoms: _358  and  _361
REMARK  146  A    between atoms: _361  and  _362
REMARK  147  A    between atoms: _365  and  _367
REMARK  148  A    between atoms: _367  and  _368
REMARK  149  A    between atoms: _367  and  _370
REMARK  150  A    between atoms: _370  and  _371
REMARK  151  A    between atoms: _374  and  _376
REMARK  152  A    between atoms: _376  and  _377
REMARK  153  A    between atoms: _379  and  _381
REMARK  154  A    between atoms: _381  and  _382
REMARK  155  A    between atoms: _381  and  _384
REMARK  156  A    between atoms: _388  and  _389
REMARK  157  A    between atoms: _394  and  _396
REMARK  158  A    between atoms: _396  and  _397
REMARK  159  A    between atoms: _396  and  _399
REMARK  160  A    between atoms: _399  and  _400
REMARK  161  A    between atoms: _403  and  _405
REMARK  162  A    between atoms: _405  and  _406
REMARK  163  A    between atoms: _405  and  _408
REMARK  164  A    between atoms: _411  and  _413
REMARK  165  A    between atoms: _413  and  _414
REMARK  166  A    between atoms: _413  and  _416
REMARK  167  A    between atoms: _416  and  _417
REMARK  168  A    between atoms: _417  and  _418
REMARK  169  A    between atoms: _418  and  _419
REMARK  170  A    between atoms: _428  and  _430
REMARK  171  A    between atoms: _430  and  _431
REMARK  172  A    between atoms: _430  and  _433
REMARK  173  A    between atoms: _433  and  _434
REMARK  174  A    between atoms: _437  and  _439
REMARK  175  A    between atoms: _439  and  _440
REMARK  176  A    between atoms: _443  and  _445
REMARK  177  A    between atoms: _445  and  _446
REMARK  178  A    between atoms: _445  and  _448
REMARK  179  A    between atoms: _448  and  _449
REMARK  180  A    between atoms: _449  and  _450
REMARK  181  A    between atoms: _452  and  _454
REMARK  182  A    between atoms: _454  and  _455
REMARK  183  A    between atoms: _454  and  _457
REMARK  184  A    between atoms: _457  and  _458
REMARK  185  A    between atoms: _460  and  _462
REMARK  186  A    between atoms: _462  and  _463
REMARK  187  A    between atoms: _462  and  _465
REMARK  188  A    between atoms: _465  and  _466
REMARK  189  A    between atoms: _468  and  _470
REMARK  190  A    between atoms: _470  and  _471
REMARK  191  A    between atoms: _470  and  _473
REMARK  192  A    between atoms: _473  and  _474
REMARK  193  A    between atoms: _474  and  _475
REMARK  194  A    between atoms: _475  and  _476
REMARK  195  A    between atoms: _485  and  _487
REMARK  196  A    between atoms: _487  and  _488
REMARK  197  A    between atoms: _487  and  _490
REMARK  198  A    between atoms: _490  and  _491
REMARK  199  A    between atoms: _496  and  _498
REMARK  200  A    between atoms: _498  and  _499
REMARK  201  A    between atoms: _498  and  _501
REMARK  202  A    between atoms: _501  and  _502
REMARK  203  A    between atoms: _502  and  _503
REMARK  204  A    between atoms: _503  and  _504
REMARK  205  A    between atoms: _513  and  _515
REMARK  206  A    between atoms: _515  and  _516
REMARK  207  A    between atoms: _515  and  _518
REMARK  208  A    between atoms: _518  and  _519
REMARK  209  A    between atoms: _519  and  _520
REMARK  210  A    between atoms: _520  and  _521
REMARK  211  A    between atoms: _530  and  _532
REMARK  212  A    between atoms: _532  and  _533
REMARK  213  A    between atoms: _532  and  _535
REMARK  214  A    between atoms: _535  and  _536
REMARK  215  A    between atoms: _539  and  _541
REMARK  216  A    between atoms: _541  and  _542
REMARK  217  A    between atoms: _541  and  _544
REMARK  218  A    between atoms: _544  and  _545
REMARK  219  A    between atoms: _548  and  _550
REMARK  220  A    between atoms: _550  and  _551
REMARK  221  A    between atoms: _550  and  _553
REMARK  222  A    between atoms: _553  and  _554
REMARK                            x       y       z     vdW  Elec       q    Type
REMARK                         _______ _______ _______ _____ _____    ______ ____
ROOT
ATOM      1  O   HOH     1       8.508   8.616  -8.738  0.00  0.00    +0.000 OA
ENDROOT
TORSDOF 0
REMARK  Name = ../refined-set-2016/3ivx/3ivx_pocket.pdb
REMARK  222 active torsions:
REMARK  status: ('A' for Active; 'I' for Inactive)
REMARK    1  A    between atoms: _1  and  _3
REMARK    2  A    between atoms: _3  and  _4
REMARK    3  A    between atoms: _3  and  _6
REMARK    4  A    between atoms: _6  and  _7
REMARK    5  A    between atoms: _10  and  _12
REMARK    6  A    between atoms: _12  and  _13
REMARK    7  A    between atoms: _12  and  _15
REMARK    8  A    between atoms: _19  and  _20
REMARK    9  A    between atoms: _25  and  _27
REMARK   10  A    between atoms: _27  and  _28
REMARK   11  A    between atoms: _27  and  _30
REMARK   12  A    between atoms: _30  and  _31
REMARK   13  A    between atoms: _34  and  _36
REMARK   14  A    between atoms: _36  and  _37
REMARK   15  A    between atoms: _36  and  _39
REMARK   16  A    between atoms: _39  and  _40
REMARK   17  A    between atoms: _40  and  _41
REMARK   18  A    between atoms: _43  and  _45
REMARK   19  A    between atoms: _45  and  _46
REMARK   20  A    between atoms: _48  and  _50
REMARK   21  A    between atoms: _50  and  _51
REMARK   22  A    between atoms: _54  and  _56
REMARK   23  A    between atoms: _56  and  _57
REMARK   24  A    between atoms: _56  and  _59
REMARK   25  A    between atoms: _59  and  _60
REMARK   26  A    between atoms: _63  and  _65
REMARK   27  A    between atoms: _65  and  _66
REMARK   28  A    between atoms: _65  and  _68
REMARK   29  A    between atoms: _68  and  _69
REMARK   30  A    between atoms: _74  and  _76
REMARK   31  A    between atoms: _76  and  _77
REMARK   32  A    between atoms: _76  and  _79
REMARK   33  A    between atoms: _79  and  _80
REMARK   34  A    between atoms: _80  and  _81
REMARK   35  A    between atoms: _84  and  _86
REMARK   36  A    between atoms: _86  and  _87
REMARK   37  A    between atoms: _89  and  _91
REMARK   38  A    between atoms: _91  and  _92
REMARK   39  A    between atoms: _91  and  _94
REMARK   40  A    between atoms: _94  and  _95
REMARK   41  A    between atoms: _100  and  _102
REMARK   42  A    between atoms: _102  and  _103
REMARK   43  A    between atoms: _102  and  _105
REMARK   44  A    between atoms: _105  and  _106
REMARK   45  A    between atoms: _109  and  _111
REMARK   46  A    between atoms: _111  and  _112
REMARK   47  A    between atoms: _115  and  _117
REMARK   48  A    between atoms: _117  and  _118
REMARK   49  A    between atoms: _117  and  _120
REMARK   50  A    between atoms: _120  and  _121
REMARK   51  A    between atoms: _124  and  _126
REMARK   52  A    between atoms: _126  and  _127
REMARK   53  A    between atoms: _126  and  _129
REMARK   54  A    between atoms: _132  and  _134
REMARK   55  A    between atoms: _134  and  _135
REMARK   56  A    between atoms: _138  and  _140
REMARK   57  A    between atoms: _140  and  _141
REMARK   58  A    between atoms: _140  and  _143
REMARK   59  A    between atoms: _143  and  _144
REMARK   60  A    between atoms: _146  and  _148
REMARK   61  A    between atoms: _148  and  _149
REMARK   62  A    between atoms: _148  and  _151
REMARK   63  A    between atoms: _151  and  _152
REMARK   64  A    between atoms: _155  and  _157
REMARK   65  A    between atoms: _157  and  _158
REMARK   66  A    between atoms: _157  and  _160
REMARK   67  A    between atoms: _160  and  _161
REMARK   68  A    between atoms: _167  and  _169
REMARK   69  A    between atoms: _169  and  _170
REMARK   70  A    between atoms: _169  and  _172
REMARK   71  A    between atoms: _175  and  _177
REMARK   72  A    between atoms: _177  and  _178
REMARK   73  A    between atoms: _177  and  _180
REMARK   74  A    between atoms: _180  and  _181
REMARK   75  A    between atoms: _186  and  _188
REMARK   76  A    between atoms: _188  and  _189
REMARK   77  A    between atoms: _188  and  _191
REMARK   78  A    between atoms: _191  and  _192
REMARK   79  A    between atoms: _192  and  _193
REMARK   80  A    between atoms: _198  and  _200
REMARK   81  A    between atoms: _200  and  _201
REMARK   82  A    between atoms: _200  and  _203
REMARK   83  A    between atoms: _203  and  _204
REMARK   84  A    between atoms: _209  and  _210
REMARK   85  A    between atoms: _213  and  _214
REMARK   86  A    between atoms: _219  and  _221
REMARK   87  A    between atoms: _221  and  _222
REMARK   88  A    between atoms: _224  and  _226
REMARK   89  A    between atoms: _226  and  _227
REMARK   90  A    between atoms: _226  and  _229
REMARK   91  A    between atoms: _232  and  _234
REMARK   92  A    between atoms: _234  and  _235
REMARK   93  A    between atoms: _234  and  _237
REMARK   94  A    between atoms: _237  and  _238
REMARK   95  A    between atoms: _241  and  _243
REMARK   96  A    between atoms: _243  and  _244
REMARK   97  A    between atoms: _243  and  _246
REMARK   98  A    between atoms: _249  and  _251
REMARK   99  A    between atoms: _251  and  _252
REMARK  100  A    between atoms: _251  and  _254
REMARK  101  A    between atoms: _257  and  _259
REMARK  102  A    between atoms: _259  and  _260
REMARK  103  A    between atoms: _259  and  _262
REMARK  104  A    between atoms: _262  and  _263
REMARK  105  A    between atoms: _266  and  _268
REMARK  106  A    between atoms: _268  and  _269
REMARK  107  A    between atoms: _268  and  _271
REMARK  108  A    between atoms: _271  and  _272
REMARK  109  A    between atoms: _275  and  _277
REMARK  110  A    between atoms: _277  and  _278
REMARK  111  A    between atoms: _277  and  _280
REMARK  112  A    between atoms: _283  and  _285
REMARK  113  A    between atoms: _285  and  _286
REMARK  114  A    between atoms: _285  and  _288
REMARK  115  A    between atoms: _288  and  _289
REMARK  116  A    between atoms: _295  and  _297
REMARK  117  A    between atoms: _297  and  _298
REMARK  118  A    between atoms: _297  and  _300
REMARK  119  A    between atoms: _300  and  _301
REMARK  120  A    between atoms: _307  and  _309
REMARK  121  A    between atoms: _309  and  _310
REMARK  122  A    between atoms: _312  and  _314
REMARK  123  A    between atoms: _314  and  _315
REMARK  124  A    between atoms: _314  and  _317
REMARK  125  A    between atoms: _317  and  _318
REMARK  126  A    between atoms: _318  and  _319
REMARK  127  A    between atoms: _322  and  _324
REMARK  128  A    between atoms: _324  and  _325
REMARK  129  A    between atoms: _324  and  _327
REMARK  130  A    between atoms: _327  and  _328
REMARK  131  A    between atoms: _328  and  _329
REMARK  132  A    between atoms: _329  and  _330
REMARK  133  A    between atoms: _330  and  _331
REMARK  134  A    between atoms: _335  and  _337
REMARK  135  A    between atoms: _337  and  _338
REMARK  136  A    between atoms: _337  and  _340
REMARK  137  A    between atoms: _340  and  _341
REMARK  138  A    between atoms: _344  and  _346
REMARK  139  A    between atoms: _346  and  _347
REMARK  140  A    between atoms: _346  and  _349
REMARK  141  A    between atoms: _349  and  _350
REMARK  142  A    between atoms: _350  and  _351
REMARK  143  A    between atoms: _356  and  _358
REMARK  144  A    between atoms: _358  and  _359
REMARK  145  A    between atoms: _358  and  _361
REMARK  146  A    between atoms: _361  and  _362
REMARK  147  A    between atoms: _365  and  _367
REMARK  148  A    between atoms: _367  and  _368
REMARK  149  A    between atoms: _367  and  _370
REMARK  150  A    between atoms: _370  and  _371
REMARK  151  A    between atoms: _374  and  _376
REMARK  152  A    between atoms: _376  and  _377
REMARK  153  A    between atoms: _379  and  _381
REMARK  154  A    between atoms: _381  and  _382
REMARK  155  A    between atoms: _381  and  _384
REMARK  156  A    between atoms: _388  and  _389
REMARK  157  A    between atoms: _394  and  _396
REMARK  158  A    between atoms: _396  and  _397
REMARK  159  A    between atoms: _396  and  _399
REMARK  160  A    between atoms: _399  and  _400
REMARK  161  A    between atoms: _403  and  _405
REMARK  162  A    between atoms: _405  and  _406
REMARK  163  A    between atoms: _405  and  _408
REMARK  164  A    between atoms: _411  and  _413
REMARK  165  A    between atoms: _413  and  _414
REMARK  166  A    between atoms: _413  and  _416
REMARK  167  A    between atoms: _416  and  _417
REMARK  168  A    between atoms: _417  and  _418
REMARK  169  A    between atoms: _418  and  _419
REMARK  170  A    between atoms: _428  and  _430
REMARK  171  A    between atoms: _430  and  _431
REMARK  172  A    between atoms: _430  and  _433
REMARK  173  A    between atoms: _433  and  _434
REMARK  174  A    between atoms: _437  and  _439
REMARK  175  A    between atoms: _439  and  _440
REMARK  176  A    between atoms: _443  and  _445
REMARK  177  A    between atoms: _445  and  _446
REMARK  178  A    between atoms: _445  and  _448
REMARK  179  A    between atoms: _448  and  _449
REMARK  180  A    between atoms: _449  and  _450
REMARK  181  A    between atoms: _452  and  _454
REMARK  182  A    between atoms: _454  and  _455
REMARK  183  A    between atoms: _454  and  _457
REMARK  184  A    between atoms: _457  and  _458
REMARK  185  A    between atoms: _460  and  _462
REMARK  186  A    between atoms: _462  and  _463
REMARK  187  A    between atoms: _462  and  _465
REMARK  188  A    between atoms: _465  and  _466
REMARK  189  A    between atoms: _468  and  _470
REMARK  190  A    between atoms: _470  and  _471
REMARK  191  A    between atoms: _470  and  _473
REMARK  192  A    between atoms: _473  and  _474
REMARK  193  A    between atoms: _474  and  _475
REMARK  194  A    between atoms: _475  and  _476
REMARK  195  A    between atoms: _485  and  _487
REMARK  196  A    between atoms: _487  and  _488
REMARK  197  A    between atoms: _487  and  _490
REMARK  198  A    between atoms: _490  and  _491
REMARK  199  A    between atoms: _496  and  _498
REMARK  200  A    between atoms: _498  and  _499
REMARK  201  A    between atoms: _498  and  _501
REMARK  202  A    between atoms: _501  and  _502
REMARK  203  A    between atoms: _502  and  _503
REMARK  204  A    between atoms: _503  and  _504
REMARK  205  A    between atoms: _513  and  _515
REMARK  206  A    between atoms: _515  and  _516
REMARK  207  A    between atoms: _515  and  _518
REMARK  208  A    between atoms: _518  and  _519
REMARK  209  A    between atoms: _519  and  _520
REMARK  210  A    between atoms: _520  and  _521
REMARK  211  A    between atoms: _530  and  _532
REMARK  212  A    between atoms: _532  and  _533
REMARK  213  A    between atoms: _532  and  _535
REMARK  214  A    between atoms: _535  and  _536
REMARK  215  A    between atoms: _539  and  _541
REMARK  216  A    between atoms: _541  and  _542
REMARK  217  A    between atoms: _541  and  _544
REMARK  218  A    between atoms: _544  and  _545
REMARK  219  A    between atoms: _548  and  _550
REMARK  220  A    between atoms: _550  and  _551
REMARK  221  A    between atoms: _550  and  _553
REMARK  222  A    between atoms: _553  and  _554
REMARK                            x       y       z     vdW  Elec       q    Type
REMARK                         _______ _______ _______ _____ _____    ______ ____
ROOT
ATOM      1  O   HOH     1      23.473   7.275  -7.203  0.00  0.00    +0.000 OA
ENDROOT
TORSDOF 0
REMARK  Name = ../refined-set-2016/3ivx/3ivx_pocket.pdb
REMARK  222 active torsions:
REMARK  status: ('A' for Active; 'I' for Inactive)
REMARK    1  A    between atoms: _1  and  _3
REMARK    2  A    between atoms: _3  and  _4
REMARK    3  A    between atoms: _3  and  _6
REMARK    4  A    between atoms: _6  and  _7
REMARK    5  A    between atoms: _10  and  _12
REMARK    6  A    between atoms: _12  and  _13
REMARK    7  A    between atoms: _12  and  _15
REMARK    8  A    between atoms: _19  and  _20
REMARK    9  A    between atoms: _25  and  _27
REMARK   10  A    between atoms: _27  and  _28
REMARK   11  A    between atoms: _27  and  _30
REMARK   12  A    between atoms: _30  and  _31
REMARK   13  A    between atoms: _34  and  _36
REMARK   14  A    between atoms: _36  and  _37
REMARK   15  A    between atoms: _36  and  _39
REMARK   16  A    between atoms: _39  and  _40
REMARK   17  A    between atoms: _40  and  _41
REMARK   18  A    between atoms: _43  and  _45
REMARK   19  A    between atoms: _45  and  _46
REMARK   20  A    between atoms: _48  and  _50
REMARK   21  A    between atoms: _50  and  _51
REMARK   22  A    between atoms: _54  and  _56
REMARK   23  A    between atoms: _56  and  _57
REMARK   24  A    between atoms: _56  and  _59
REMARK   25  A    between atoms: _59  and  _60
REMARK   26  A    between atoms: _63  and  _65
REMARK   27  A    between atoms: _65  and  _66
REMARK   28  A    between atoms: _65  and  _68
REMARK   29  A    between atoms: _68  and  _69
REMARK   30  A    between atoms: _74  and  _76
REMARK   31  A    between atoms: _76  and  _77
REMARK   32  A    between atoms: _76  and  _79
REMARK   33  A    between atoms: _79  and  _80
REMARK   34  A    between atoms: _80  and  _81
REMARK   35  A    between atoms: _84  and  _86
REMARK   36  A    between atoms: _86  and  _87
REMARK   37  A    between atoms: _89  and  _91
REMARK   38  A    between atoms: _91  and  _92
REMARK   39  A    between atoms: _91  and  _94
REMARK   40  A    between atoms: _94  and  _95
REMARK   41  A    between atoms: _100  and  _102
REMARK   42  A    between atoms: _102  and  _103
REMARK   43  A    between atoms: _102  and  _105
REMARK   44  A    between atoms: _105  and  _106
REMARK   45  A    between atoms: _109  and  _111
REMARK   46  A    between atoms: _111  and  _112
REMARK   47  A    between atoms: _115  and  _117
REMARK   48  A    between atoms: _117  and  _118
REMARK   49  A    between atoms: _117  and  _120
REMARK   50  A    between atoms: _120  and  _121
REMARK   51  A    between atoms: _124  and  _126
REMARK   52  A    between atoms: _126  and  _127
REMARK   53  A    between atoms: _126  and  _129
REMARK   54  A    between atoms: _132  and  _134
REMARK   55  A    between atoms: _134  and  _135
REMARK   56  A    between atoms: _138  and  _140
REMARK   57  A    between atoms: _140  and  _141
REMARK   58  A    between atoms: _140  and  _143
REMARK   59  A    between atoms: _143  and  _144
REMARK   60  A    between atoms: _146  and  _148
REMARK   61  A    between atoms: _148  and  _149
REMARK   62  A    between atoms: _148  and  _151
REMARK   63  A    between atoms: _151  and  _152
REMARK   64  A    between atoms: _155  and  _157
REMARK   65  A    between atoms: _157  and  _158
REMARK   66  A    between atoms: _157  and  _160
REMARK   67  A    between atoms: _160  and  _161
REMARK   68  A    between atoms: _167  and  _169
REMARK   69  A    between atoms: _169  and  _170
REMARK   70  A    between atoms: _169  and  _172
REMARK   71  A    between atoms: _175  and  _177
REMARK   72  A    between atoms: _177  and  _178
REMARK   73  A    between atoms: _177  and  _180
REMARK   74  A    between atoms: _180  and  _181
REMARK   75  A    between atoms: _186  and  _188
REMARK   76  A    between atoms: _188  and  _189
REMARK   77  A    between atoms: _188  and  _191
REMARK   78  A    between atoms: _191  and  _192
REMARK   79  A    between atoms: _192  and  _193
REMARK   80  A    between atoms: _198  and  _200
REMARK   81  A    between atoms: _200  and  _201
REMARK   82  A    between atoms: _200  and  _203
REMARK   83  A    between atoms: _203  and  _204
REMARK   84  A    between atoms: _209  and  _210
REMARK   85  A    between atoms: _213  and  _214
REMARK   86  A    between atoms: _219  and  _221
REMARK   87  A    between atoms: _221  and  _222
REMARK   88  A    between atoms: _224  and  _226
REMARK   89  A    between atoms: _226  and  _227
REMARK   90  A    between atoms: _226  and  _229
REMARK   91  A    between atoms: _232  and  _234
REMARK   92  A    between atoms: _234  and  _235
REMARK   93  A    between atoms: _234  and  _237
REMARK   94  A    between atoms: _237  and  _238
REMARK   95  A    between atoms: _241  and  _243
REMARK   96  A    between atoms: _243  and  _244
REMARK   97  A    between atoms: _243  and  _246
REMARK   98  A    between atoms: _249  and  _251
REMARK   99  A    between atoms: _251  and  _252
REMARK  100  A    between atoms: _251  and  _254
REMARK  101  A    between atoms: _257  and  _259
REMARK  102  A    between atoms: _259  and  _260
REMARK  103  A    between atoms: _259  and  _262
REMARK  104  A    between atoms: _262  and  _263
REMARK  105  A    between atoms: _266  and  _268
REMARK  106  A    between atoms: _268  and  _269
REMARK  107  A    between atoms: _268  and  _271
REMARK  108  A    between atoms: _271  and  _272
REMARK  109  A    between atoms: _275  and  _277
REMARK  110  A    between atoms: _277  and  _278
REMARK  111  A    between atoms: _277  and  _280
REMARK  112  A    between atoms: _283  and  _285
REMARK  113  A    between atoms: _285  and  _286
REMARK  114  A    between atoms: _285  and  _288
REMARK  115  A    between atoms: _288  and  _289
REMARK  116  A    between atoms: _295  and  _297
REMARK  117  A    between atoms: _297  and  _298
REMARK  118  A    between atoms: _297  and  _300
REMARK  119  A    between atoms: _300  and  _301
REMARK  120  A    between atoms: _307  and  _309
REMARK  121  A    between atoms: _309  and  _310
REMARK  122  A    between atoms: _312  and  _314
REMARK  123  A    between atoms: _314  and  _315
REMARK  124  A    between atoms: _314  and  _317
REMARK  125  A    between atoms: _317  and  _318
REMARK  126  A    between atoms: _318  and  _319
REMARK  127  A    between atoms: _322  and  _324
REMARK  128  A    between atoms: _324  and  _325
REMARK  129  A    between atoms: _324  and  _327
REMARK  130  A    between atoms: _327  and  _328
REMARK  131  A    between atoms: _328  and  _329
REMARK  132  A    between atoms: _329  and  _330
REMARK  133  A    between atoms: _330  and  _331
REMARK  134  A    between atoms: _335  and  _337
REMARK  135  A    between atoms: _337  and  _338
REMARK  136  A    between atoms: _337  and  _340
REMARK  137  A    between atoms: _340  and  _341
REMARK  138  A    between atoms: _344  and  _346
REMARK  139  A    between atoms: _346  and  _347
REMARK  140  A    between atoms: _346  and  _349
REMARK  141  A    between atoms: _349  and  _350
REMARK  142  A    between atoms: _350  and  _351
REMARK  143  A    between atoms: _356  and  _358
REMARK  144  A    between atoms: _358  and  _359
REMARK  145  A    between atoms: _358  and  _361
REMARK  146  A    between atoms: _361  and  _362
REMARK  147  A    between atoms: _365  and  _367
REMARK  148  A    between atoms: _367  and  _368
REMARK  149  A    between atoms: _367  and  _370
REMARK  150  A    between atoms: _370  and  _371
REMARK  151  A    between atoms: _374  and  _376
REMARK  152  A    between atoms: _376  and  _377
REMARK  153  A    between atoms: _379  and  _381
REMARK  154  A    between atoms: _381  and  _382
REMARK  155  A    between atoms: _381  and  _384
REMARK  156  A    between atoms: _388  and  _389
REMARK  157  A    between atoms: _394  and  _396
REMARK  158  A    between atoms: _396  and  _397
REMARK  159  A    between atoms: _396  and  _399
REMARK  160  A    between atoms: _399  and  _400
REMARK  161  A    between atoms: _403  and  _405
REMARK  162  A    between atoms: _405  and  _406
REMARK  163  A    between atoms: _405  and  _408
REMARK  164  A    between atoms: _411  and  _413
REMARK  165  A    between atoms: _413  and  _414
REMARK  166  A    between atoms: _413  and  _416
REMARK  167  A    between atoms: _416  and  _417
REMARK  168  A    between atoms: _417  and  _418
REMARK  169  A    between atoms: _418  and  _419
REMARK  170  A    between atoms: _428  and  _430
REMARK  171  A    between atoms: _430  and  _431
REMARK  172  A    between atoms: _430  and  _433
REMARK  173  A    between atoms: _433  and  _434
REMARK  174  A    between atoms: _437  and  _439
REMARK  175  A    between atoms: _439  and  _440
REMARK  176  A    between atoms: _443  and  _445
REMARK  177  A    between atoms: _445  and  _446
REMARK  178  A    between atoms: _445  and  _448
REMARK  179  A    between atoms: _448  and  _449
REMARK  180  A    between atoms: _449  and  _450
REMARK  181  A    between atoms: _452  and  _454
REMARK  182  A    between atoms: _454  and  _455
REMARK  183  A    between atoms: _454  and  _457
REMARK  184  A    between atoms: _457  and  _458
REMARK  185  A    between atoms: _460  and  _462
REMARK  186  A    between atoms: _462  and  _463
REMARK  187  A    between atoms: _462  and  _465
REMARK  188  A    between atoms: _465  and  _466
REMARK  189  A    between atoms: _468  and  _470
REMARK  190  A    between atoms: _470  and  _471
REMARK  191  A    between atoms: _470  and  _473
REMARK  192  A    between atoms: _473  and  _474
REMARK  193  A    between atoms: _474  and  _475
REMARK  194  A    between atoms: _475  and  _476
REMARK  195  A    between atoms: _485  and  _487
REMARK  196  A    between atoms: _487  and  _488
REMARK  197  A    between atoms: _487  and  _490
REMARK  198  A    between atoms: _490  and  _491
REMARK  199  A    between atoms: _496  and  _498
REMARK  200  A    between atoms: _498  and  _499
REMARK  201  A    between atoms: _498  and  _501
REMARK  202  A    between atoms: _501  and  _502
REMARK  203  A    between atoms: _502  and  _503
REMARK  204  A    between atoms: _503  and  _504
REMARK  205  A    between atoms: _513  and  _515
REMARK  206  A    between atoms: _515  and  _516
REMARK  207  A    between atoms: _515  and  _518
REMARK  208  A    between atoms: _518  and  _519
REMARK  209  A    between atoms: _519  and  _520
REMARK  210  A    between atoms: _520  and  _521
REMARK  211  A    between atoms: _530  and  _532
REMARK  212  A    between atoms: _532  and  _533
REMARK  213  A    between atoms: _532  and  _535
REMARK  214  A    between atoms: _535  and  _536
REMARK  215  A    between atoms: _539  and  _541
REMARK  216  A    between atoms: _541  and  _542
REMARK  217  A    between atoms: _541  and  _544
REMARK  218  A    between atoms: _544  and  _545
REMARK  219  A    between atoms: _548  and  _550
REMARK  220  A    between atoms: _550  and  _551
REMARK  221  A    between atoms: _550  and  _553
REMARK  222  A    between atoms: _553  and  _554
REMARK                            x       y       z     vdW  Elec       q    Type
REMARK                         _______ _______ _______ _____ _____    ______ ____
ROOT
ATOM      1  O   HOH     1      14.061  12.150  10.936  0.00  0.00    +0.000 OA
ENDROOT
TORSDOF 0
REMARK  Name = ../refined-set-2016/3ivx/3ivx_pocket.pdb
REMARK  222 active torsions:
REMARK  status: ('A' for Active; 'I' for Inactive)
REMARK    1  A    between atoms: _1  and  _3
REMARK    2  A    between atoms: _3  and  _4
REMARK    3  A    between atoms: _3  and  _6
REMARK    4  A    between atoms: _6  and  _7
REMARK    5  A    between atoms: _10  and  _12
REMARK    6  A    between atoms: _12  and  _13
REMARK    7  A    between atoms: _12  and  _15
REMARK    8  A    between atoms: _19  and  _20
REMARK    9  A    between atoms: _25  and  _27
REMARK   10  A    between atoms: _27  and  _28
REMARK   11  A    between atoms: _27  and  _30
REMARK   12  A    between atoms: _30  and  _31
REMARK   13  A    between atoms: _34  and  _36
REMARK   14  A    between atoms: _36  and  _37
REMARK   15  A    between atoms: _36  and  _39
REMARK   16  A    between atoms: _39  and  _40
REMARK   17  A    between atoms: _40  and  _41
REMARK   18  A    between atoms: _43  and  _45
REMARK   19  A    between atoms: _45  and  _46
REMARK   20  A    between atoms: _48  and  _50
REMARK   21  A    between atoms: _50  and  _51
REMARK   22  A    between atoms: _54  and  _56
REMARK   23  A    between atoms: _56  and  _57
REMARK   24  A    between atoms: _56  and  _59
REMARK   25  A    between atoms: _59  and  _60
REMARK   26  A    between atoms: _63  and  _65
REMARK   27  A    between atoms: _65  and  _66
REMARK   28  A    between atoms: _65  and  _68
REMARK   29  A    between atoms: _68  and  _69
REMARK   30  A    between atoms: _74  and  _76
REMARK   31  A    between atoms: _76  and  _77
REMARK   32  A    between atoms: _76  and  _79
REMARK   33  A    between atoms: _79  and  _80
REMARK   34  A    between atoms: _80  and  _81
REMARK   35  A    between atoms: _84  and  _86
REMARK   36  A    between atoms: _86  and  _87
REMARK   37  A    between atoms: _89  and  _91
REMARK   38  A    between atoms: _91  and  _92
REMARK   39  A    between atoms: _91  and  _94
REMARK   40  A    between atoms: _94  and  _95
REMARK   41  A    between atoms: _100  and  _102
REMARK   42  A    between atoms: _102  and  _103
REMARK   43  A    between atoms: _102  and  _105
REMARK   44  A    between atoms: _105  and  _106
REMARK   45  A    between atoms: _109  and  _111
REMARK   46  A    between atoms: _111  and  _112
REMARK   47  A    between atoms: _115  and  _117
REMARK   48  A    between atoms: _117  and  _118
REMARK   49  A    between atoms: _117  and  _120
REMARK   50  A    between atoms: _120  and  _121
REMARK   51  A    between atoms: _124  and  _126
REMARK   52  A    between atoms: _126  and  _127
REMARK   53  A    between atoms: _126  and  _129
REMARK   54  A    between atoms: _132  and  _134
REMARK   55  A    between atoms: _134  and  _135
REMARK   56  A    between atoms: _138  and  _140
REMARK   57  A    between atoms: _140  and  _141
REMARK   58  A    between atoms: _140  and  _143
REMARK   59  A    between atoms: _143  and  _144
REMARK   60  A    between atoms: _146  and  _148
REMARK   61  A    between atoms: _148  and  _149
REMARK   62  A    between atoms: _148  and  _151
REMARK   63  A    between atoms: _151  and  _152
REMARK   64  A    between atoms: _155  and  _157
REMARK   65  A    between atoms: _157  and  _158
REMARK   66  A    between atoms: _157  and  _160
REMARK   67  A    between atoms: _160  and  _161
REMARK   68  A    between atoms: _167  and  _169
REMARK   69  A    between atoms: _169  and  _170
REMARK   70  A    between atoms: _169  and  _172
REMARK   71  A    between atoms: _175  and  _177
REMARK   72  A    between atoms: _177  and  _178
REMARK   73  A    between atoms: _177  and  _180
REMARK   74  A    between atoms: _180  and  _181
REMARK   75  A    between atoms: _186  and  _188
REMARK   76  A    between atoms: _188  and  _189
REMARK   77  A    between atoms: _188  and  _191
REMARK   78  A    between atoms: _191  and  _192
REMARK   79  A    between atoms: _192  and  _193
REMARK   80  A    between atoms: _198  and  _200
REMARK   81  A    between atoms: _200  and  _201
REMARK   82  A    between atoms: _200  and  _203
REMARK   83  A    between atoms: _203  and  _204
REMARK   84  A    between atoms: _209  and  _210
REMARK   85  A    between atoms: _213  and  _214
REMARK   86  A    between atoms: _219  and  _221
REMARK   87  A    between atoms: _221  and  _222
REMARK   88  A    between atoms: _224  and  _226
REMARK   89  A    between atoms: _226  and  _227
REMARK   90  A    between atoms: _226  and  _229
REMARK   91  A    between atoms: _232  and  _234
REMARK   92  A    between atoms: _234  and  _235
REMARK   93  A    between atoms: _234  and  _237
REMARK   94  A    between atoms: _237  and  _238
REMARK   95  A    between atoms: _241  and  _243
REMARK   96  A    between atoms: _243  and  _244
REMARK   97  A    between atoms: _243  and  _246
REMARK   98  A    between atoms: _249  and  _251
REMARK   99  A    between atoms: _251  and  _252
REMARK  100  A    between atoms: _251  and  _254
REMARK  101  A    between atoms: _257  and  _259
REMARK  102  A    between atoms: _259  and  _260
REMARK  103  A    between atoms: _259  and  _262
REMARK  104  A    between atoms: _262  and  _263
REMARK  105  A    between atoms: _266  and  _268
REMARK  106  A    between atoms: _268  and  _269
REMARK  107  A    between atoms: _268  and  _271
REMARK  108  A    between atoms: _271  and  _272
REMARK  109  A    between atoms: _275  and  _277
REMARK  110  A    between atoms: _277  and  _278
REMARK  111  A    between atoms: _277  and  _280
REMARK  112  A    between atoms: _283  and  _285
REMARK  113  A    between atoms: _285  and  _286
REMARK  114  A    between atoms: _285  and  _288
REMARK  115  A    between atoms: _288  and  _289
REMARK  116  A    between atoms: _295  and  _297
REMARK  117  A    between atoms: _297  and  _298
REMARK  118  A    between atoms: _297  and  _300
REMARK  119  A    between atoms: _300  and  _301
REMARK  120  A    between atoms: _307  and  _309
REMARK  121  A    between atoms: _309  and  _310
REMARK  122  A    between atoms: _312  and  _314
REMARK  123  A    between atoms: _314  and  _315
REMARK  124  A    between atoms: _314  and  _317
REMARK  125  A    between atoms: _317  and  _318
REMARK  126  A    between atoms: _318  and  _319
REMARK  127  A    between atoms: _322  and  _324
REMARK  128  A    between atoms: _324  and  _325
REMARK  129  A    between atoms: _324  and  _327
REMARK  130  A    between atoms: _327  and  _328
REMARK  131  A    between atoms: _328  and  _329
REMARK  132  A    between atoms: _329  and  _330
REMARK  133  A    between atoms: _330  and  _331
REMARK  134  A    between atoms: _335  and  _337
REMARK  135  A    between atoms: _337  and  _338
REMARK  136  A    between atoms: _337  and  _340
REMARK  137  A    between atoms: _340  and  _341
REMARK  138  A    between atoms: _344  and  _346
REMARK  139  A    between atoms: _346  and  _347
REMARK  140  A    between atoms: _346  and  _349
REMARK  141  A    between atoms: _349  and  _350
REMARK  142  A    between atoms: _350  and  _351
REMARK  143  A    between atoms: _356  and  _358
REMARK  144  A    between atoms: _358  and  _359
REMARK  145  A    between atoms: _358  and  _361
REMARK  146  A    between atoms: _361  and  _362
REMARK  147  A    between atoms: _365  and  _367
REMARK  148  A    between atoms: _367  and  _368
REMARK  149  A    between atoms: _367  and  _370
REMARK  150  A    between atoms: _370  and  _371
REMARK  151  A    between atoms: _374  and  _376
REMARK  152  A    between atoms: _376  and  _377
REMARK  153  A    between atoms: _379  and  _381
REMARK  154  A    between atoms: _381  and  _382
REMARK  155  A    between atoms: _381  and  _384
REMARK  156  A    between atoms: _388  and  _389
REMARK  157  A    between atoms: _394  and  _396
REMARK  158  A    between atoms: _396  and  _397
REMARK  159  A    between atoms: _396  and  _399
REMARK  160  A    between atoms: _399  and  _400
REMARK  161  A    between atoms: _403  and  _405
REMARK  162  A    between atoms: _405  and  _406
REMARK  163  A    between atoms: _405  and  _408
REMARK  164  A    between atoms: _411  and  _413
REMARK  165  A    between atoms: _413  and  _414
REMARK  166  A    between atoms: _413  and  _416
REMARK  167  A    between atoms: _416  and  _417
REMARK  168  A    between atoms: _417  and  _418
REMARK  169  A    between atoms: _418  and  _419
REMARK  170  A    between atoms: _428  and  _430
REMARK  171  A    between atoms: _430  and  _431
REMARK  172  A    between atoms: _430  and  _433
REMARK  173  A    between atoms: _433  and  _434
REMARK  174  A    between atoms: _437  and  _439
REMARK  175  A    between atoms: _439  and  _440
REMARK  176  A    between atoms: _443  and  _445
REMARK  177  A    between atoms: _445  and  _446
REMARK  178  A    between atoms: _445  and  _448
REMARK  179  A    between atoms: _448  and  _449
REMARK  180  A    between atoms: _449  and  _450
REMARK  181  A    between atoms: _452  and  _454
REMARK  182  A    between atoms: _454  and  _455
REMARK  183  A    between atoms: _454  and  _457
REMARK  184  A    between atoms: _457  and  _458
REMARK  185  A    between atoms: _460  and  _462
REMARK  186  A    between atoms: _462  and  _463
REMARK  187  A    between atoms: _462  and  _465
REMARK  188  A    between atoms: _465  and  _466
REMARK  189  A    between atoms: _468  and  _470
REMARK  190  A    between atoms: _470  and  _471
REMARK  191  A    between atoms: _470  and  _473
REMARK  192  A    between atoms: _473  and  _474
REMARK  193  A    between atoms: _474  and  _475
REMARK  194  A    between atoms: _475  and  _476
REMARK  195  A    between atoms: _485  and  _487
REMARK  196  A    between atoms: _487  and  _488
REMARK  197  A    between atoms: _487  and  _490
REMARK  198  A    between atoms: _490  and  _491
REMARK  199  A    between atoms: _496  and  _498
REMARK  200  A    between atoms: _498  and  _499
REMARK  201  A    between atoms: _498  and  _501
REMARK  202  A    between atoms: _501  and  _502
REMARK  203  A    between atoms: _502  and  _503
REMARK  204  A    between atoms: _503  and  _504
REMARK  205  A    between atoms: _513  and  _515
REMARK  206  A    between atoms: _515  and  _516
REMARK  207  A    between atoms: _515  and  _518
REMARK  208  A    between atoms: _518  and  _519
REMARK  209  A    between atoms: _519  and  _520
REMARK  210  A    between atoms: _520  and  _521
REMARK  211  A    between atoms: _530  and  _532
REMARK  212  A    between atoms: _532  and  _533
REMARK  213  A    between atoms: _532  and  _535
REMARK  214  A    between atoms: _535  and  _536
REMARK  215  A    between atoms: _539  and  _541
REMARK  216  A    between atoms: _541  and  _542
REMARK  217  A    between atoms: _541  and  _544
REMARK  218  A    between atoms: _544  and  _545
REMARK  219  A    between atoms: _548  and  _550
REMARK  220  A    between atoms: _550  and  _551
REMARK  221  A    between atoms: _550  and  _553
REMARK  222  A    between atoms: _553  and  _554
REMARK                            x       y       z     vdW  Elec       q    Type
REMARK                         _______ _______ _______ _____ _____    ______ ____
ROOT
ATOM      1  O   HOH     1      19.389  18.118  -1.611  0.00  0.00    +0.000 OA
ENDROOT
TORSDOF 0
REMARK  Name = ../refined-set-2016/3ivx/3ivx_pocket.pdb
REMARK  222 active torsions:
REMARK  status: ('A' for Active; 'I' for Inactive)
REMARK    1  A    between atoms: _1  and  _3
REMARK    2  A    between atoms: _3  and  _4
REMARK    3  A    between atoms: _3  and  _6
REMARK    4  A    between atoms: _6  and  _7
REMARK    5  A    between atoms: _10  and  _12
REMARK    6  A    between atoms: _12  and  _13
REMARK    7  A    between atoms: _12  and  _15
REMARK    8  A    between atoms: _19  and  _20
REMARK    9  A    between atoms: _25  and  _27
REMARK   10  A    between atoms: _27  and  _28
REMARK   11  A    between atoms: _27  and  _30
REMARK   12  A    between atoms: _30  and  _31
REMARK   13  A    between atoms: _34  and  _36
REMARK   14  A    between atoms: _36  and  _37
REMARK   15  A    between atoms: _36  and  _39
REMARK   16  A    between atoms: _39  and  _40
REMARK   17  A    between atoms: _40  and  _41
REMARK   18  A    between atoms: _43  and  _45
REMARK   19  A    between atoms: _45  and  _46
REMARK   20  A    between atoms: _48  and  _50
REMARK   21  A    between atoms: _50  and  _51
REMARK   22  A    between atoms: _54  and  _56
REMARK   23  A    between atoms: _56  and  _57
REMARK   24  A    between atoms: _56  and  _59
REMARK   25  A    between atoms: _59  and  _60
REMARK   26  A    between atoms: _63  and  _65
REMARK   27  A    between atoms: _65  and  _66
REMARK   28  A    between atoms: _65  and  _68
REMARK   29  A    between atoms: _68  and  _69
REMARK   30  A    between atoms: _74  and  _76
REMARK   31  A    between atoms: _76  and  _77
REMARK   32  A    between atoms: _76  and  _79
REMARK   33  A    between atoms: _79  and  _80
REMARK   34  A    between atoms: _80  and  _81
REMARK   35  A    between atoms: _84  and  _86
REMARK   36  A    between atoms: _86  and  _87
REMARK   37  A    between atoms: _89  and  _91
REMARK   38  A    between atoms: _91  and  _92
REMARK   39  A    between atoms: _91  and  _94
REMARK   40  A    between atoms: _94  and  _95
REMARK   41  A    between atoms: _100  and  _102
REMARK   42  A    between atoms: _102  and  _103
REMARK   43  A    between atoms: _102  and  _105
REMARK   44  A    between atoms: _105  and  _106
REMARK   45  A    between atoms: _109  and  _111
REMARK   46  A    between atoms: _111  and  _112
REMARK   47  A    between atoms: _115  and  _117
REMARK   48  A    between atoms: _117  and  _118
REMARK   49  A    between atoms: _117  and  _120
REMARK   50  A    between atoms: _120  and  _121
REMARK   51  A    between atoms: _124  and  _126
REMARK   52  A    between atoms: _126  and  _127
REMARK   53  A    between atoms: _126  and  _129
REMARK   54  A    between atoms: _132  and  _134
REMARK   55  A    between atoms: _134  and  _135
REMARK   56  A    between atoms: _138  and  _140
REMARK   57  A    between atoms: _140  and  _141
REMARK   58  A    between atoms: _140  and  _143
REMARK   59  A    between atoms: _143  and  _144
REMARK   60  A    between atoms: _146  and  _148
REMARK   61  A    between atoms: _148  and  _149
REMARK   62  A    between atoms: _148  and  _151
REMARK   63  A    between atoms: _151  and  _152
REMARK   64  A    between atoms: _155  and  _157
REMARK   65  A    between atoms: _157  and  _158
REMARK   66  A    between atoms: _157  and  _160
REMARK   67  A    between atoms: _160  and  _161
REMARK   68  A    between atoms: _167  and  _169
REMARK   69  A    between atoms: _169  and  _170
REMARK   70  A    between atoms: _169  and  _172
REMARK   71  A    between atoms: _175  and  _177
REMARK   72  A    between atoms: _177  and  _178
REMARK   73  A    between atoms: _177  and  _180
REMARK   74  A    between atoms: _180  and  _181
REMARK   75  A    between atoms: _186  and  _188
REMARK   76  A    between atoms: _188  and  _189
REMARK   77  A    between atoms: _188  and  _191
REMARK   78  A    between atoms: _191  and  _192
REMARK   79  A    between atoms: _192  and  _193
REMARK   80  A    between atoms: _198  and  _200
REMARK   81  A    between atoms: _200  and  _201
REMARK   82  A    between atoms: _200  and  _203
REMARK   83  A    between atoms: _203  and  _204
REMARK   84  A    between atoms: _209  and  _210
REMARK   85  A    between atoms: _213  and  _214
REMARK   86  A    between atoms: _219  and  _221
REMARK   87  A    between atoms: _221  and  _222
REMARK   88  A    between atoms: _224  and  _226
REMARK   89  A    between atoms: _226  and  _227
REMARK   90  A    between atoms: _226  and  _229
REMARK   91  A    between atoms: _232  and  _234
REMARK   92  A    between atoms: _234  and  _235
REMARK   93  A    between atoms: _234  and  _237
REMARK   94  A    between atoms: _237  and  _238
REMARK   95  A    between atoms: _241  and  _243
REMARK   96  A    between atoms: _243  and  _244
REMARK   97  A    between atoms: _243  and  _246
REMARK   98  A    between atoms: _249  and  _251
REMARK   99  A    between atoms: _251  and  _252
REMARK  100  A    between atoms: _251  and  _254
REMARK  101  A    between atoms: _257  and  _259
REMARK  102  A    between atoms: _259  and  _260
REMARK  103  A    between atoms: _259  and  _262
REMARK  104  A    between atoms: _262  and  _263
REMARK  105  A    between atoms: _266  and  _268
REMARK  106  A    between atoms: _268  and  _269
REMARK  107  A    between atoms: _268  and  _271
REMARK  108  A    between atoms: _271  and  _272
REMARK  109  A    between atoms: _275  and  _277
REMARK  110  A    between atoms: _277  and  _278
REMARK  111  A    between atoms: _277  and  _280
REMARK  112  A    between atoms: _283  and  _285
REMARK  113  A    between atoms: _285  and  _286
REMARK  114  A    between atoms: _285  and  _288
REMARK  115  A    between atoms: _288  and  _289
REMARK  116  A    between atoms: _295  and  _297
REMARK  117  A    between atoms: _297  and  _298
REMARK  118  A    between atoms: _297  and  _300
REMARK  119  A    between atoms: _300  and  _301
REMARK  120  A    between atoms: _307  and  _309
REMARK  121  A    between atoms: _309  and  _310
REMARK  122  A    between atoms: _312  and  _314
REMARK  123  A    between atoms: _314  and  _315
REMARK  124  A    between atoms: _314  and  _317
REMARK  125  A    between atoms: _317  and  _318
REMARK  126  A    between atoms: _318  and  _319
REMARK  127  A    between atoms: _322  and  _324
REMARK  128  A    between atoms: _324  and  _325
REMARK  129  A    between atoms: _324  and  _327
REMARK  130  A    between atoms: _327  and  _328
REMARK  131  A    between atoms: _328  and  _329
REMARK  132  A    between atoms: _329  and  _330
REMARK  133  A    between atoms: _330  and  _331
REMARK  134  A    between atoms: _335  and  _337
REMARK  135  A    between atoms: _337  and  _338
REMARK  136  A    between atoms: _337  and  _340
REMARK  137  A    between atoms: _340  and  _341
REMARK  138  A    between atoms: _344  and  _346
REMARK  139  A    between atoms: _346  and  _347
REMARK  140  A    between atoms: _346  and  _349
REMARK  141  A    between atoms: _349  and  _350
REMARK  142  A    between atoms: _350  and  _351
REMARK  143  A    between atoms: _356  and  _358
REMARK  144  A    between atoms: _358  and  _359
REMARK  145  A    between atoms: _358  and  _361
REMARK  146  A    between atoms: _361  and  _362
REMARK  147  A    between atoms: _365  and  _367
REMARK  148  A    between atoms: _367  and  _368
REMARK  149  A    between atoms: _367  and  _370
REMARK  150  A    between atoms: _370  and  _371
REMARK  151  A    between atoms: _374  and  _376
REMARK  152  A    between atoms: _376  and  _377
REMARK  153  A    between atoms: _379  and  _381
REMARK  154  A    between atoms: _381  and  _382
REMARK  155  A    between atoms: _381  and  _384
REMARK  156  A    between atoms: _388  and  _389
REMARK  157  A    between atoms: _394  and  _396
REMARK  158  A    between atoms: _396  and  _397
REMARK  159  A    between atoms: _396  and  _399
REMARK  160  A    between atoms: _399  and  _400
REMARK  161  A    between atoms: _403  and  _405
REMARK  162  A    between atoms: _405  and  _406
REMARK  163  A    between atoms: _405  and  _408
REMARK  164  A    between atoms: _411  and  _413
REMARK  165  A    between atoms: _413  and  _414
REMARK  166  A    between atoms: _413  and  _416
REMARK  167  A    between atoms: _416  and  _417
REMARK  168  A    between atoms: _417  and  _418
REMARK  169  A    between atoms: _418  and  _419
REMARK  170  A    between atoms: _428  and  _430
REMARK  171  A    between atoms: _430  and  _431
REMARK  172  A    between atoms: _430  and  _433
REMARK  173  A    between atoms: _433  and  _434
REMARK  174  A    between atoms: _437  and  _439
REMARK  175  A    between atoms: _439  and  _440
REMARK  176  A    between atoms: _443  and  _445
REMARK  177  A    between atoms: _445  and  _446
REMARK  178  A    between atoms: _445  and  _448
REMARK  179  A    between atoms: _448  and  _449
REMARK  180  A    between atoms: _449  and  _450
REMARK  181  A    between atoms: _452  and  _454
REMARK  182  A    between atoms: _454  and  _455
REMARK  183  A    between atoms: _454  and  _457
REMARK  184  A    between atoms: _457  and  _458
REMARK  185  A    between atoms: _460  and  _462
REMARK  186  A    between atoms: _462  and  _463
REMARK  187  A    between atoms: _462  and  _465
REMARK  188  A    between atoms: _465  and  _466
REMARK  189  A    between atoms: _468  and  _470
REMARK  190  A    between atoms: _470  and  _471
REMARK  191  A    between atoms: _470  and  _473
REMARK  192  A    between atoms: _473  and  _474
REMARK  193  A    between atoms: _474  and  _475
REMARK  194  A    between atoms: _475  and  _476
REMARK  195  A    between atoms: _485  and  _487
REMARK  196  A    between atoms: _487  and  _488
REMARK  197  A    between atoms: _487  and  _490
REMARK  198  A    between atoms: _490  and  _491
REMARK  199  A    between atoms: _496  and  _498
REMARK  200  A    between atoms: _498  and  _499
REMARK  201  A    between atoms: _498  and  _501
REMARK  202  A    between atoms: _501  and  _502
REMARK  203  A    between atoms: _502  and  _503
REMARK  204  A    between atoms: _503  and  _504
REMARK  205  A    between atoms: _513  and  _515
REMARK  206  A    between atoms: _515  and  _516
REMARK  207  A    between atoms: _515  and  _518
REMARK  208  A    between atoms: _518  and  _519
REMARK  209  A    between atoms: _519  and  _520
REMARK  210  A    between atoms: _520  and  _521
REMARK  211  A    between atoms: _530  and  _532
REMARK  212  A    between atoms: _532  and  _533
REMARK  213  A    between atoms: _532  and  _535
REMARK  214  A    between atoms: _535  and  _536
REMARK  215  A    between atoms: _539  and  _541
REMARK  216  A    between atoms: _541  and  _542
REMARK  217  A    between atoms: _541  and  _544
REMARK  218  A    between atoms: _544  and  _545
REMARK  219  A    between atoms: _548  and  _550
REMARK  220  A    between atoms: _550  and  _551
REMARK  221  A    between atoms: _550  and  _553
REMARK  222  A    between atoms: _553  and  _554
REMARK                            x       y       z     vdW  Elec       q    Type
REMARK                         _______ _______ _______ _____ _____    ______ ____
ROOT
ATOM      1  O   HOH     1      20.398   3.700   3.073  0.00  0.00    +0.000 OA
ENDROOT
TORSDOF 0
REMARK  Name = ../refined-set-2016/3ivx/3ivx_pocket.pdb
REMARK  222 active torsions:
REMARK  status: ('A' for Active; 'I' for Inactive)
REMARK    1  A    between atoms: _1  and  _3
REMARK    2  A    between atoms: _3  and  _4
REMARK    3  A    between atoms: _3  and  _6
REMARK    4  A    between atoms: _6  and  _7
REMARK    5  A    between atoms: _10  and  _12
REMARK    6  A    between atoms: _12  and  _13
REMARK    7  A    between atoms: _12  and  _15
REMARK    8  A    between atoms: _19  and  _20
REMARK    9  A    between atoms: _25  and  _27
REMARK   10  A    between atoms: _27  and  _28
REMARK   11  A    between atoms: _27  and  _30
REMARK   12  A    between atoms: _30  and  _31
REMARK   13  A    between atoms: _34  and  _36
REMARK   14  A    between atoms: _36  and  _37
REMARK   15  A    between atoms: _36  and  _39
REMARK   16  A    between atoms: _39  and  _40
REMARK   17  A    between atoms: _40  and  _41
REMARK   18  A    between atoms: _43  and  _45
REMARK   19  A    between atoms: _45  and  _46
REMARK   20  A    between atoms: _48  and  _50
REMARK   21  A    between atoms: _50  and  _51
REMARK   22  A    between atoms: _54  and  _56
REMARK   23  A    between atoms: _56  and  _57
REMARK   24  A    between atoms: _56  and  _59
REMARK   25  A    between atoms: _59  and  _60
REMARK   26  A    between atoms: _63  and  _65
REMARK   27  A    between atoms: _65  and  _66
REMARK   28  A    between atoms: _65  and  _68
REMARK   29  A    between atoms: _68  and  _69
REMARK   30  A    between atoms: _74  and  _76
REMARK   31  A    between atoms: _76  and  _77
REMARK   32  A    between atoms: _76  and  _79
REMARK   33  A    between atoms: _79  and  _80
REMARK   34  A    between atoms: _80  and  _81
REMARK   35  A    between atoms: _84  and  _86
REMARK   36  A    between atoms: _86  and  _87
REMARK   37  A    between atoms: _89  and  _91
REMARK   38  A    between atoms: _91  and  _92
REMARK   39  A    between atoms: _91  and  _94
REMARK   40  A    between atoms: _94  and  _95
REMARK   41  A    between atoms: _100  and  _102
REMARK   42  A    between atoms: _102  and  _103
REMARK   43  A    between atoms: _102  and  _105
REMARK   44  A    between atoms: _105  and  _106
REMARK   45  A    between atoms: _109  and  _111
REMARK   46  A    between atoms: _111  and  _112
REMARK   47  A    between atoms: _115  and  _117
REMARK   48  A    between atoms: _117  and  _118
REMARK   49  A    between atoms: _117  and  _120
REMARK   50  A    between atoms: _120  and  _121
REMARK   51  A    between atoms: _124  and  _126
REMARK   52  A    between atoms: _126  and  _127
REMARK   53  A    between atoms: _126  and  _129
REMARK   54  A    between atoms: _132  and  _134
REMARK   55  A    between atoms: _134  and  _135
REMARK   56  A    between atoms: _138  and  _140
REMARK   57  A    between atoms: _140  and  _141
REMARK   58  A    between atoms: _140  and  _143
REMARK   59  A    between atoms: _143  and  _144
REMARK   60  A    between atoms: _146  and  _148
REMARK   61  A    between atoms: _148  and  _149
REMARK   62  A    between atoms: _148  and  _151
REMARK   63  A    between atoms: _151  and  _152
REMARK   64  A    between atoms: _155  and  _157
REMARK   65  A    between atoms: _157  and  _158
REMARK   66  A    between atoms: _157  and  _160
REMARK   67  A    between atoms: _160  and  _161
REMARK   68  A    between atoms: _167  and  _169
REMARK   69  A    between atoms: _169  and  _170
REMARK   70  A    between atoms: _169  and  _172
REMARK   71  A    between atoms: _175  and  _177
REMARK   72  A    between atoms: _177  and  _178
REMARK   73  A    between atoms: _177  and  _180
REMARK   74  A    between atoms: _180  and  _181
REMARK   75  A    between atoms: _186  and  _188
REMARK   76  A    between atoms: _188  and  _189
REMARK   77  A    between atoms: _188  and  _191
REMARK   78  A    between atoms: _191  and  _192
REMARK   79  A    between atoms: _192  and  _193
REMARK   80  A    between atoms: _198  and  _200
REMARK   81  A    between atoms: _200  and  _201
REMARK   82  A    between atoms: _200  and  _203
REMARK   83  A    between atoms: _203  and  _204
REMARK   84  A    between atoms: _209  and  _210
REMARK   85  A    between atoms: _213  and  _214
REMARK   86  A    between atoms: _219  and  _221
REMARK   87  A    between atoms: _221  and  _222
REMARK   88  A    between atoms: _224  and  _226
REMARK   89  A    between atoms: _226  and  _227
REMARK   90  A    between atoms: _226  and  _229
REMARK   91  A    between atoms: _232  and  _234
REMARK   92  A    between atoms: _234  and  _235
REMARK   93  A    between atoms: _234  and  _237
REMARK   94  A    between atoms: _237  and  _238
REMARK   95  A    between atoms: _241  and  _243
REMARK   96  A    between atoms: _243  and  _244
REMARK   97  A    between atoms: _243  and  _246
REMARK   98  A    between atoms: _249  and  _251
REMARK   99  A    between atoms: _251  and  _252
REMARK  100  A    between atoms: _251  and  _254
REMARK  101  A    between atoms: _257  and  _259
REMARK  102  A    between atoms: _259  and  _260
REMARK  103  A    between atoms: _259  and  _262
REMARK  104  A    between atoms: _262  and  _263
REMARK  105  A    between atoms: _266  and  _268
REMARK  106  A    between atoms: _268  and  _269
REMARK  107  A    between atoms: _268  and  _271
REMARK  108  A    between atoms: _271  and  _272
REMARK  109  A    between atoms: _275  and  _277
REMARK  110  A    between atoms: _277  and  _278
REMARK  111  A    between atoms: _277  and  _280
REMARK  112  A    between atoms: _283  and  _285
REMARK  113  A    between atoms: _285  and  _286
REMARK  114  A    between atoms: _285  and  _288
REMARK  115  A    between atoms: _288  and  _289
REMARK  116  A    between atoms: _295  and  _297
REMARK  117  A    between atoms: _297  and  _298
REMARK  118  A    between atoms: _297  and  _300
REMARK  119  A    between atoms: _300  and  _301
REMARK  120  A    between atoms: _307  and  _309
REMARK  121  A    between atoms: _309  and  _310
REMARK  122  A    between atoms: _312  and  _314
REMARK  123  A    between atoms: _314  and  _315
REMARK  124  A    between atoms: _314  and  _317
REMARK  125  A    between atoms: _317  and  _318
REMARK  126  A    between atoms: _318  and  _319
REMARK  127  A    between atoms: _322  and  _324
REMARK  128  A    between atoms: _324  and  _325
REMARK  129  A    between atoms: _324  and  _327
REMARK  130  A    between atoms: _327  and  _328
REMARK  131  A    between atoms: _328  and  _329
REMARK  132  A    between atoms: _329  and  _330
REMARK  133  A    between atoms: _330  and  _331
REMARK  134  A    between atoms: _335  and  _337
REMARK  135  A    between atoms: _337  and  _338
REMARK  136  A    between atoms: _337  and  _340
REMARK  137  A    between atoms: _340  and  _341
REMARK  138  A    between atoms: _344  and  _346
REMARK  139  A    between atoms: _346  and  _347
REMARK  140  A    between atoms: _346  and  _349
REMARK  141  A    between atoms: _349  and  _350
REMARK  142  A    between atoms: _350  and  _351
REMARK  143  A    between atoms: _356  and  _358
REMARK  144  A    between atoms: _358  and  _359
REMARK  145  A    between atoms: _358  and  _361
REMARK  146  A    between atoms: _361  and  _362
REMARK  147  A    between atoms: _365  and  _367
REMARK  148  A    between atoms: _367  and  _368
REMARK  149  A    between atoms: _367  and  _370
REMARK  150  A    between atoms: _370  and  _371
REMARK  151  A    between atoms: _374  and  _376
REMARK  152  A    between atoms: _376  and  _377
REMARK  153  A    between atoms: _379  and  _381
REMARK  154  A    between atoms: _381  and  _382
REMARK  155  A    between atoms: _381  and  _384
REMARK  156  A    between atoms: _388  and  _389
REMARK  157  A    between atoms: _394  and  _396
REMARK  158  A    between atoms: _396  and  _397
REMARK  159  A    between atoms: _396  and  _399
REMARK  160  A    between atoms: _399  and  _400
REMARK  161  A    between atoms: _403  and  _405
REMARK  162  A    between atoms: _405  and  _406
REMARK  163  A    between atoms: _405  and  _408
REMARK  164  A    between atoms: _411  and  _413
REMARK  165  A    between atoms: _413  and  _414
REMARK  166  A    between atoms: _413  and  _416
REMARK  167  A    between atoms: _416  and  _417
REMARK  168  A    between atoms: _417  and  _418
REMARK  169  A    between atoms: _418  and  _419
REMARK  170  A    between atoms: _428  and  _430
REMARK  171  A    between atoms: _430  and  _431
REMARK  172  A    between atoms: _430  and  _433
REMARK  173  A    between atoms: _433  and  _434
REMARK  174  A    between atoms: _437  and  _439
REMARK  175  A    between atoms: _439  and  _440
REMARK  176  A    between atoms: _443  and  _445
REMARK  177  A    between atoms: _445  and  _446
REMARK  178  A    between atoms: _445  and  _448
REMARK  179  A    between atoms: _448  and  _449
REMARK  180  A    between atoms: _449  and  _450
REMARK  181  A    between atoms: _452  and  _454
REMARK  182  A    between atoms: _454  and  _455
REMARK  183  A    between atoms: _454  and  _457
REMARK  184  A    between atoms: _457  and  _458
REMARK  185  A    between atoms: _460  and  _462
REMARK  186  A    between atoms: _462  and  _463
REMARK  187  A    between atoms: _462  and  _465
REMARK  188  A    between atoms: _465  and  _466
REMARK  189  A    between atoms: _468  and  _470
REMARK  190  A    between atoms: _470  and  _471
REMARK  191  A    between atoms: _470  and  _473
REMARK  192  A    between atoms: _473  and  _474
REMARK  193  A    between atoms: _474  and  _475
REMARK  194  A    between atoms: _475  and  _476
REMARK  195  A    between atoms: _485  and  _487
REMARK  196  A    between atoms: _487  and  _488
REMARK  197  A    between atoms: _487  and  _490
REMARK  198  A    between atoms: _490  and  _491
REMARK  199  A    between atoms: _496  and  _498
REMARK  200  A    between atoms: _498  and  _499
REMARK  201  A    between atoms: _498  and  _501
REMARK  202  A    between atoms: _501  and  _502
REMARK  203  A    between atoms: _502  and  _503
REMARK  204  A    between atoms: _503  and  _504
REMARK  205  A    between atoms: _513  and  _515
REMARK  206  A    between atoms: _515  and  _516
REMARK  207  A    between atoms: _515  and  _518
REMARK  208  A    between atoms: _518  and  _519
REMARK  209  A    between atoms: _519  and  _520
REMARK  210  A    between atoms: _520  and  _521
REMARK  211  A    between atoms: _530  and  _532
REMARK  212  A    between atoms: _532  and  _533
REMARK  213  A    between atoms: _532  and  _535
REMARK  214  A    between atoms: _535  and  _536
REMARK  215  A    between atoms: _539  and  _541
REMARK  216  A    between atoms: _541  and  _542
REMARK  217  A    between atoms: _541  and  _544
REMARK  218  A    between atoms: _544  and  _545
REMARK  219  A    between atoms: _548  and  _550
REMARK  220  A    between atoms: _550  and  _551
REMARK  221  A    between atoms: _550  and  _553
REMARK  222  A    between atoms: _553  and  _554
REMARK                            x       y       z     vdW  Elec       q    Type
REMARK                         _______ _______ _______ _____ _____    ______ ____
ROOT
ATOM      1  O   HOH     1      19.319   4.513   5.663  0.00  0.00    +0.000 OA
ENDROOT
TORSDOF 0
REMARK  Name = ../refined-set-2016/3ivx/3ivx_pocket.pdb
REMARK  222 active torsions:
REMARK  status: ('A' for Active; 'I' for Inactive)
REMARK    1  A    between atoms: _1  and  _3
REMARK    2  A    between atoms: _3  and  _4
REMARK    3  A    between atoms: _3  and  _6
REMARK    4  A    between atoms: _6  and  _7
REMARK    5  A    between atoms: _10  and  _12
REMARK    6  A    between atoms: _12  and  _13
REMARK    7  A    between atoms: _12  and  _15
REMARK    8  A    between atoms: _19  and  _20
REMARK    9  A    between atoms: _25  and  _27
REMARK   10  A    between atoms: _27  and  _28
REMARK   11  A    between atoms: _27  and  _30
REMARK   12  A    between atoms: _30  and  _31
REMARK   13  A    between atoms: _34  and  _36
REMARK   14  A    between atoms: _36  and  _37
REMARK   15  A    between atoms: _36  and  _39
REMARK   16  A    between atoms: _39  and  _40
REMARK   17  A    between atoms: _40  and  _41
REMARK   18  A    between atoms: _43  and  _45
REMARK   19  A    between atoms: _45  and  _46
REMARK   20  A    between atoms: _48  and  _50
REMARK   21  A    between atoms: _50  and  _51
REMARK   22  A    between atoms: _54  and  _56
REMARK   23  A    between atoms: _56  and  _57
REMARK   24  A    between atoms: _56  and  _59
REMARK   25  A    between atoms: _59  and  _60
REMARK   26  A    between atoms: _63  and  _65
REMARK   27  A    between atoms: _65  and  _66
REMARK   28  A    between atoms: _65  and  _68
REMARK   29  A    between atoms: _68  and  _69
REMARK   30  A    between atoms: _74  and  _76
REMARK   31  A    between atoms: _76  and  _77
REMARK   32  A    between atoms: _76  and  _79
REMARK   33  A    between atoms: _79  and  _80
REMARK   34  A    between atoms: _80  and  _81
REMARK   35  A    between atoms: _84  and  _86
REMARK   36  A    between atoms: _86  and  _87
REMARK   37  A    between atoms: _89  and  _91
REMARK   38  A    between atoms: _91  and  _92
REMARK   39  A    between atoms: _91  and  _94
REMARK   40  A    between atoms: _94  and  _95
REMARK   41  A    between atoms: _100  and  _102
REMARK   42  A    between atoms: _102  and  _103
REMARK   43  A    between atoms: _102  and  _105
REMARK   44  A    between atoms: _105  and  _106
REMARK   45  A    between atoms: _109  and  _111
REMARK   46  A    between atoms: _111  and  _112
REMARK   47  A    between atoms: _115  and  _117
REMARK   48  A    between atoms: _117  and  _118
REMARK   49  A    between atoms: _117  and  _120
REMARK   50  A    between atoms: _120  and  _121
REMARK   51  A    between atoms: _124  and  _126
REMARK   52  A    between atoms: _126  and  _127
REMARK   53  A    between atoms: _126  and  _129
REMARK   54  A    between atoms: _132  and  _134
REMARK   55  A    between atoms: _134  and  _135
REMARK   56  A    between atoms: _138  and  _140
REMARK   57  A    between atoms: _140  and  _141
REMARK   58  A    between atoms: _140  and  _143
REMARK   59  A    between atoms: _143  and  _144
REMARK   60  A    between atoms: _146  and  _148
REMARK   61  A    between atoms: _148  and  _149
REMARK   62  A    between atoms: _148  and  _151
REMARK   63  A    between atoms: _151  and  _152
REMARK   64  A    between atoms: _155  and  _157
REMARK   65  A    between atoms: _157  and  _158
REMARK   66  A    between atoms: _157  and  _160
REMARK   67  A    between atoms: _160  and  _161
REMARK   68  A    between atoms: _167  and  _169
REMARK   69  A    between atoms: _169  and  _170
REMARK   70  A    between atoms: _169  and  _172
REMARK   71  A    between atoms: _175  and  _177
REMARK   72  A    between atoms: _177  and  _178
REMARK   73  A    between atoms: _177  and  _180
REMARK   74  A    between atoms: _180  and  _181
REMARK   75  A    between atoms: _186  and  _188
REMARK   76  A    between atoms: _188  and  _189
REMARK   77  A    between atoms: _188  and  _191
REMARK   78  A    between atoms: _191  and  _192
REMARK   79  A    between atoms: _192  and  _193
REMARK   80  A    between atoms: _198  and  _200
REMARK   81  A    between atoms: _200  and  _201
REMARK   82  A    between atoms: _200  and  _203
REMARK   83  A    between atoms: _203  and  _204
REMARK   84  A    between atoms: _209  and  _210
REMARK   85  A    between atoms: _213  and  _214
REMARK   86  A    between atoms: _219  and  _221
REMARK   87  A    between atoms: _221  and  _222
REMARK   88  A    between atoms: _224  and  _226
REMARK   89  A    between atoms: _226  and  _227
REMARK   90  A    between atoms: _226  and  _229
REMARK   91  A    between atoms: _232  and  _234
REMARK   92  A    between atoms: _234  and  _235
REMARK   93  A    between atoms: _234  and  _237
REMARK   94  A    between atoms: _237  and  _238
REMARK   95  A    between atoms: _241  and  _243
REMARK   96  A    between atoms: _243  and  _244
REMARK   97  A    between atoms: _243  and  _246
REMARK   98  A    between atoms: _249  and  _251
REMARK   99  A    between atoms: _251  and  _252
REMARK  100  A    between atoms: _251  and  _254
REMARK  101  A    between atoms: _257  and  _259
REMARK  102  A    between atoms: _259  and  _260
REMARK  103  A    between atoms: _259  and  _262
REMARK  104  A    between atoms: _262  and  _263
REMARK  105  A    between atoms: _266  and  _268
REMARK  106  A    between atoms: _268  and  _269
REMARK  107  A    between atoms: _268  and  _271
REMARK  108  A    between atoms: _271  and  _272
REMARK  109  A    between atoms: _275  and  _277
REMARK  110  A    between atoms: _277  and  _278
REMARK  111  A    between atoms: _277  and  _280
REMARK  112  A    between atoms: _283  and  _285
REMARK  113  A    between atoms: _285  and  _286
REMARK  114  A    between atoms: _285  and  _288
REMARK  115  A    between atoms: _288  and  _289
REMARK  116  A    between atoms: _295  and  _297
REMARK  117  A    between atoms: _297  and  _298
REMARK  118  A    between atoms: _297  and  _300
REMARK  119  A    between atoms: _300  and  _301
REMARK  120  A    between atoms: _307  and  _309
REMARK  121  A    between atoms: _309  and  _310
REMARK  122  A    between atoms: _312  and  _314
REMARK  123  A    between atoms: _314  and  _315
REMARK  124  A    between atoms: _314  and  _317
REMARK  125  A    between atoms: _317  and  _318
REMARK  126  A    between atoms: _318  and  _319
REMARK  127  A    between atoms: _322  and  _324
REMARK  128  A    between atoms: _324  and  _325
REMARK  129  A    between atoms: _324  and  _327
REMARK  130  A    between atoms: _327  and  _328
REMARK  131  A    between atoms: _328  and  _329
REMARK  132  A    between atoms: _329  and  _330
REMARK  133  A    between atoms: _330  and  _331
REMARK  134  A    between atoms: _335  and  _337
REMARK  135  A    between atoms: _337  and  _338
REMARK  136  A    between atoms: _337  and  _340
REMARK  137  A    between atoms: _340  and  _341
REMARK  138  A    between atoms: _344  and  _346
REMARK  139  A    between atoms: _346  and  _347
REMARK  140  A    between atoms: _346  and  _349
REMARK  141  A    between atoms: _349  and  _350
REMARK  142  A    between atoms: _350  and  _351
REMARK  143  A    between atoms: _356  and  _358
REMARK  144  A    between atoms: _358  and  _359
REMARK  145  A    between atoms: _358  and  _361
REMARK  146  A    between atoms: _361  and  _362
REMARK  147  A    between atoms: _365  and  _367
REMARK  148  A    between atoms: _367  and  _368
REMARK  149  A    between atoms: _367  and  _370
REMARK  150  A    between atoms: _370  and  _371
REMARK  151  A    between atoms: _374  and  _376
REMARK  152  A    between atoms: _376  and  _377
REMARK  153  A    between atoms: _379  and  _381
REMARK  154  A    between atoms: _381  and  _382
REMARK  155  A    between atoms: _381  and  _384
REMARK  156  A    between atoms: _388  and  _389
REMARK  157  A    between atoms: _394  and  _396
REMARK  158  A    between atoms: _396  and  _397
REMARK  159  A    between atoms: _396  and  _399
REMARK  160  A    between atoms: _399  and  _400
REMARK  161  A    between atoms: _403  and  _405
REMARK  162  A    between atoms: _405  and  _406
REMARK  163  A    between atoms: _405  and  _408
REMARK  164  A    between atoms: _411  and  _413
REMARK  165  A    between atoms: _413  and  _414
REMARK  166  A    between atoms: _413  and  _416
REMARK  167  A    between atoms: _416  and  _417
REMARK  168  A    between atoms: _417  and  _418
REMARK  169  A    between atoms: _418  and  _419
REMARK  170  A    between atoms: _428  and  _430
REMARK  171  A    between atoms: _430  and  _431
REMARK  172  A    between atoms: _430  and  _433
REMARK  173  A    between atoms: _433  and  _434
REMARK  174  A    between atoms: _437  and  _439
REMARK  175  A    between atoms: _439  and  _440
REMARK  176  A    between atoms: _443  and  _445
REMARK  177  A    between atoms: _445  and  _446
REMARK  178  A    between atoms: _445  and  _448
REMARK  179  A    between atoms: _448  and  _449
REMARK  180  A    between atoms: _449  and  _450
REMARK  181  A    between atoms: _452  and  _454
REMARK  182  A    between atoms: _454  and  _455
REMARK  183  A    between atoms: _454  and  _457
REMARK  184  A    between atoms: _457  and  _458
REMARK  185  A    between atoms: _460  and  _462
REMARK  186  A    between atoms: _462  and  _463
REMARK  187  A    between atoms: _462  and  _465
REMARK  188  A    between atoms: _465  and  _466
REMARK  189  A    between atoms: _468  and  _470
REMARK  190  A    between atoms: _470  and  _471
REMARK  191  A    between atoms: _470  and  _473
REMARK  192  A    between atoms: _473  and  _474
REMARK  193  A    between atoms: _474  and  _475
REMARK  194  A    between atoms: _475  and  _476
REMARK  195  A    between atoms: _485  and  _487
REMARK  196  A    between atoms: _487  and  _488
REMARK  197  A    between atoms: _487  and  _490
REMARK  198  A    between atoms: _490  and  _491
REMARK  199  A    between atoms: _496  and  _498
REMARK  200  A    between atoms: _498  and  _499
REMARK  201  A    between atoms: _498  and  _501
REMARK  202  A    between atoms: _501  and  _502
REMARK  203  A    between atoms: _502  and  _503
REMARK  204  A    between atoms: _503  and  _504
REMARK  205  A    between atoms: _513  and  _515
REMARK  206  A    between atoms: _515  and  _516
REMARK  207  A    between atoms: _515  and  _518
REMARK  208  A    between atoms: _518  and  _519
REMARK  209  A    between atoms: _519  and  _520
REMARK  210  A    between atoms: _520  and  _521
REMARK  211  A    between atoms: _530  and  _532
REMARK  212  A    between atoms: _532  and  _533
REMARK  213  A    between atoms: _532  and  _535
REMARK  214  A    between atoms: _535  and  _536
REMARK  215  A    between atoms: _539  and  _541
REMARK  216  A    between atoms: _541  and  _542
REMARK  217  A    between atoms: _541  and  _544
REMARK  218  A    between atoms: _544  and  _545
REMARK  219  A    between atoms: _548  and  _550
REMARK  220  A    between atoms: _550  and  _551
REMARK  221  A    between atoms: _550  and  _553
REMARK  222  A    between atoms: _553  and  _554
REMARK                            x       y       z     vdW  Elec       q    Type
REMARK                         _______ _______ _______ _____ _____    ______ ____
ROOT
ATOM      1  O   HOH     1       5.622   9.240  -8.260  0.00  0.00    +0.000 OA
ENDROOT
TORSDOF 0
REMARK  Name = ../refined-set-2016/3ivx/3ivx_pocket.pdb
REMARK  222 active torsions:
REMARK  status: ('A' for Active; 'I' for Inactive)
REMARK    1  A    between atoms: _1  and  _3
REMARK    2  A    between atoms: _3  and  _4
REMARK    3  A    between atoms: _3  and  _6
REMARK    4  A    between atoms: _6  and  _7
REMARK    5  A    between atoms: _10  and  _12
REMARK    6  A    between atoms: _12  and  _13
REMARK    7  A    between atoms: _12  and  _15
REMARK    8  A    between atoms: _19  and  _20
REMARK    9  A    between atoms: _25  and  _27
REMARK   10  A    between atoms: _27  and  _28
REMARK   11  A    between atoms: _27  and  _30
REMARK   12  A    between atoms: _30  and  _31
REMARK   13  A    between atoms: _34  and  _36
REMARK   14  A    between atoms: _36  and  _37
REMARK   15  A    between atoms: _36  and  _39
REMARK   16  A    between atoms: _39  and  _40
REMARK   17  A    between atoms: _40  and  _41
REMARK   18  A    between atoms: _43  and  _45
REMARK   19  A    between atoms: _45  and  _46
REMARK   20  A    between atoms: _48  and  _50
REMARK   21  A    between atoms: _50  and  _51
REMARK   22  A    between atoms: _54  and  _56
REMARK   23  A    between atoms: _56  and  _57
REMARK   24  A    between atoms: _56  and  _59
REMARK   25  A    between atoms: _59  and  _60
REMARK   26  A    between atoms: _63  and  _65
REMARK   27  A    between atoms: _65  and  _66
REMARK   28  A    between atoms: _65  and  _68
REMARK   29  A    between atoms: _68  and  _69
REMARK   30  A    between atoms: _74  and  _76
REMARK   31  A    between atoms: _76  and  _77
REMARK   32  A    between atoms: _76  and  _79
REMARK   33  A    between atoms: _79  and  _80
REMARK   34  A    between atoms: _80  and  _81
REMARK   35  A    between atoms: _84  and  _86
REMARK   36  A    between atoms: _86  and  _87
REMARK   37  A    between atoms: _89  and  _91
REMARK   38  A    between atoms: _91  and  _92
REMARK   39  A    between atoms: _91  and  _94
REMARK   40  A    between atoms: _94  and  _95
REMARK   41  A    between atoms: _100  and  _102
REMARK   42  A    between atoms: _102  and  _103
REMARK   43  A    between atoms: _102  and  _105
REMARK   44  A    between atoms: _105  and  _106
REMARK   45  A    between atoms: _109  and  _111
REMARK   46  A    between atoms: _111  and  _112
REMARK   47  A    between atoms: _115  and  _117
REMARK   48  A    between atoms: _117  and  _118
REMARK   49  A    between atoms: _117  and  _120
REMARK   50  A    between atoms: _120  and  _121
REMARK   51  A    between atoms: _124  and  _126
REMARK   52  A    between atoms: _126  and  _127
REMARK   53  A    between atoms: _126  and  _129
REMARK   54  A    between atoms: _132  and  _134
REMARK   55  A    between atoms: _134  and  _135
REMARK   56  A    between atoms: _138  and  _140
REMARK   57  A    between atoms: _140  and  _141
REMARK   58  A    between atoms: _140  and  _143
REMARK   59  A    between atoms: _143  and  _144
REMARK   60  A    between atoms: _146  and  _148
REMARK   61  A    between atoms: _148  and  _149
REMARK   62  A    between atoms: _148  and  _151
REMARK   63  A    between atoms: _151  and  _152
REMARK   64  A    between atoms: _155  and  _157
REMARK   65  A    between atoms: _157  and  _158
REMARK   66  A    between atoms: _157  and  _160
REMARK   67  A    between atoms: _160  and  _161
REMARK   68  A    between atoms: _167  and  _169
REMARK   69  A    between atoms: _169  and  _170
REMARK   70  A    between atoms: _169  and  _172
REMARK   71  A    between atoms: _175  and  _177
REMARK   72  A    between atoms: _177  and  _178
REMARK   73  A    between atoms: _177  and  _180
REMARK   74  A    between atoms: _180  and  _181
REMARK   75  A    between atoms: _186  and  _188
REMARK   76  A    between atoms: _188  and  _189
REMARK   77  A    between atoms: _188  and  _191
REMARK   78  A    between atoms: _191  and  _192
REMARK   79  A    between atoms: _192  and  _193
REMARK   80  A    between atoms: _198  and  _200
REMARK   81  A    between atoms: _200  and  _201
REMARK   82  A    between atoms: _200  and  _203
REMARK   83  A    between atoms: _203  and  _204
REMARK   84  A    between atoms: _209  and  _210
REMARK   85  A    between atoms: _213  and  _214
REMARK   86  A    between atoms: _219  and  _221
REMARK   87  A    between atoms: _221  and  _222
REMARK   88  A    between atoms: _224  and  _226
REMARK   89  A    between atoms: _226  and  _227
REMARK   90  A    between atoms: _226  and  _229
REMARK   91  A    between atoms: _232  and  _234
REMARK   92  A    between atoms: _234  and  _235
REMARK   93  A    between atoms: _234  and  _237
REMARK   94  A    between atoms: _237  and  _238
REMARK   95  A    between atoms: _241  and  _243
REMARK   96  A    between atoms: _243  and  _244
REMARK   97  A    between atoms: _243  and  _246
REMARK   98  A    between atoms: _249  and  _251
REMARK   99  A    between atoms: _251  and  _252
REMARK  100  A    between atoms: _251  and  _254
REMARK  101  A    between atoms: _257  and  _259
REMARK  102  A    between atoms: _259  and  _260
REMARK  103  A    between atoms: _259  and  _262
REMARK  104  A    between atoms: _262  and  _263
REMARK  105  A    between atoms: _266  and  _268
REMARK  106  A    between atoms: _268  and  _269
REMARK  107  A    between atoms: _268  and  _271
REMARK  108  A    between atoms: _271  and  _272
REMARK  109  A    between atoms: _275  and  _277
REMARK  110  A    between atoms: _277  and  _278
REMARK  111  A    between atoms: _277  and  _280
REMARK  112  A    between atoms: _283  and  _285
REMARK  113  A    between atoms: _285  and  _286
REMARK  114  A    between atoms: _285  and  _288
REMARK  115  A    between atoms: _288  and  _289
REMARK  116  A    between atoms: _295  and  _297
REMARK  117  A    between atoms: _297  and  _298
REMARK  118  A    between atoms: _297  and  _300
REMARK  119  A    between atoms: _300  and  _301
REMARK  120  A    between atoms: _307  and  _309
REMARK  121  A    between atoms: _309  and  _310
REMARK  122  A    between atoms: _312  and  _314
REMARK  123  A    between atoms: _314  and  _315
REMARK  124  A    between atoms: _314  and  _317
REMARK  125  A    between atoms: _317  and  _318
REMARK  126  A    between atoms: _318  and  _319
REMARK  127  A    between atoms: _322  and  _324
REMARK  128  A    between atoms: _324  and  _325
REMARK  129  A    between atoms: _324  and  _327
REMARK  130  A    between atoms: _327  and  _328
REMARK  131  A    between atoms: _328  and  _329
REMARK  132  A    between atoms: _329  and  _330
REMARK  133  A    between atoms: _330  and  _331
REMARK  134  A    between atoms: _335  and  _337
REMARK  135  A    between atoms: _337  and  _338
REMARK  136  A    between atoms: _337  and  _340
REMARK  137  A    between atoms: _340  and  _341
REMARK  138  A    between atoms: _344  and  _346
REMARK  139  A    between atoms: _346  and  _347
REMARK  140  A    between atoms: _346  and  _349
REMARK  141  A    between atoms: _349  and  _350
REMARK  142  A    between atoms: _350  and  _351
REMARK  143  A    between atoms: _356  and  _358
REMARK  144  A    between atoms: _358  and  _359
REMARK  145  A    between atoms: _358  and  _361
REMARK  146  A    between atoms: _361  and  _362
REMARK  147  A    between atoms: _365  and  _367
REMARK  148  A    between atoms: _367  and  _368
REMARK  149  A    between atoms: _367  and  _370
REMARK  150  A    between atoms: _370  and  _371
REMARK  151  A    between atoms: _374  and  _376
REMARK  152  A    between atoms: _376  and  _377
REMARK  153  A    between atoms: _379  and  _381
REMARK  154  A    between atoms: _381  and  _382
REMARK  155  A    between atoms: _381  and  _384
REMARK  156  A    between atoms: _388  and  _389
REMARK  157  A    between atoms: _394  and  _396
REMARK  158  A    between atoms: _396  and  _397
REMARK  159  A    between atoms: _396  and  _399
REMARK  160  A    between atoms: _399  and  _400
REMARK  161  A    between atoms: _403  and  _405
REMARK  162  A    between atoms: _405  and  _406
REMARK  163  A    between atoms: _405  and  _408
REMARK  164  A    between atoms: _411  and  _413
REMARK  165  A    between atoms: _413  and  _414
REMARK  166  A    between atoms: _413  and  _416
REMARK  167  A    between atoms: _416  and  _417
REMARK  168  A    between atoms: _417  and  _418
REMARK  169  A    between atoms: _418  and  _419
REMARK  170  A    between atoms: _428  and  _430
REMARK  171  A    between atoms: _430  and  _431
REMARK  172  A    between atoms: _430  and  _433
REMARK  173  A    between atoms: _433  and  _434
REMARK  174  A    between atoms: _437  and  _439
REMARK  175  A    between atoms: _439  and  _440
REMARK  176  A    between atoms: _443  and  _445
REMARK  177  A    between atoms: _445  and  _446
REMARK  178  A    between atoms: _445  and  _448
REMARK  179  A    between atoms: _448  and  _449
REMARK  180  A    between atoms: _449  and  _450
REMARK  181  A    between atoms: _452  and  _454
REMARK  182  A    between atoms: _454  and  _455
REMARK  183  A    between atoms: _454  and  _457
REMARK  184  A    between atoms: _457  and  _458
REMARK  185  A    between atoms: _460  and  _462
REMARK  186  A    between atoms: _462  and  _463
REMARK  187  A    between atoms: _462  and  _465
REMARK  188  A    between atoms: _465  and  _466
REMARK  189  A    between atoms: _468  and  _470
REMARK  190  A    between atoms: _470  and  _471
REMARK  191  A    between atoms: _470  and  _473
REMARK  192  A    between atoms: _473  and  _474
REMARK  193  A    between atoms: _474  and  _475
REMARK  194  A    between atoms: _475  and  _476
REMARK  195  A    between atoms: _485  and  _487
REMARK  196  A    between atoms: _487  and  _488
REMARK  197  A    between atoms: _487  and  _490
REMARK  198  A    between atoms: _490  and  _491
REMARK  199  A    between atoms: _496  and  _498
REMARK  200  A    between atoms: _498  and  _499
REMARK  201  A    between atoms: _498  and  _501
REMARK  202  A    between atoms: _501  and  _502
REMARK  203  A    between atoms: _502  and  _503
REMARK  204  A    between atoms: _503  and  _504
REMARK  205  A    between atoms: _513  and  _515
REMARK  206  A    between atoms: _515  and  _516
REMARK  207  A    between atoms: _515  and  _518
REMARK  208  A    between atoms: _518  and  _519
REMARK  209  A    between atoms: _519  and  _520
REMARK  210  A    between atoms: _520  and  _521
REMARK  211  A    between atoms: _530  and  _532
REMARK  212  A    between atoms: _532  and  _533
REMARK  213  A    between atoms: _532  and  _535
REMARK  214  A    between atoms: _535  and  _536
REMARK  215  A    between atoms: _539  and  _541
REMARK  216  A    between atoms: _541  and  _542
REMARK  217  A    between atoms: _541  and  _544
REMARK  218  A    between atoms: _544  and  _545
REMARK  219  A    between atoms: _548  and  _550
REMARK  220  A    between atoms: _550  and  _551
REMARK  221  A    between atoms: _550  and  _553
REMARK  222  A    between atoms: _553  and  _554
REMARK                            x       y       z     vdW  Elec       q    Type
REMARK                         _______ _______ _______ _____ _____    ______ ____
ROOT
ATOM      1  O   HOH     1       4.785  11.272  -7.233  0.00  0.00    +0.000 OA
ENDROOT
TORSDOF 0
REMARK  Name = ../refined-set-2016/3ivx/3ivx_pocket.pdb
REMARK  222 active torsions:
REMARK  status: ('A' for Active; 'I' for Inactive)
REMARK    1  A    between atoms: _1  and  _3
REMARK    2  A    between atoms: _3  and  _4
REMARK    3  A    between atoms: _3  and  _6
REMARK    4  A    between atoms: _6  and  _7
REMARK    5  A    between atoms: _10  and  _12
REMARK    6  A    between atoms: _12  and  _13
REMARK    7  A    between atoms: _12  and  _15
REMARK    8  A    between atoms: _19  and  _20
REMARK    9  A    between atoms: _25  and  _27
REMARK   10  A    between atoms: _27  and  _28
REMARK   11  A    between atoms: _27  and  _30
REMARK   12  A    between atoms: _30  and  _31
REMARK   13  A    between atoms: _34  and  _36
REMARK   14  A    between atoms: _36  and  _37
REMARK   15  A    between atoms: _36  and  _39
REMARK   16  A    between atoms: _39  and  _40
REMARK   17  A    between atoms: _40  and  _41
REMARK   18  A    between atoms: _43  and  _45
REMARK   19  A    between atoms: _45  and  _46
REMARK   20  A    between atoms: _48  and  _50
REMARK   21  A    between atoms: _50  and  _51
REMARK   22  A    between atoms: _54  and  _56
REMARK   23  A    between atoms: _56  and  _57
REMARK   24  A    between atoms: _56  and  _59
REMARK   25  A    between atoms: _59  and  _60
REMARK   26  A    between atoms: _63  and  _65
REMARK   27  A    between atoms: _65  and  _66
REMARK   28  A    between atoms: _65  and  _68
REMARK   29  A    between atoms: _68  and  _69
REMARK   30  A    between atoms: _74  and  _76
REMARK   31  A    between atoms: _76  and  _77
REMARK   32  A    between atoms: _76  and  _79
REMARK   33  A    between atoms: _79  and  _80
REMARK   34  A    between atoms: _80  and  _81
REMARK   35  A    between atoms: _84  and  _86
REMARK   36  A    between atoms: _86  and  _87
REMARK   37  A    between atoms: _89  and  _91
REMARK   38  A    between atoms: _91  and  _92
REMARK   39  A    between atoms: _91  and  _94
REMARK   40  A    between atoms: _94  and  _95
REMARK   41  A    between atoms: _100  and  _102
REMARK   42  A    between atoms: _102  and  _103
REMARK   43  A    between atoms: _102  and  _105
REMARK   44  A    between atoms: _105  and  _106
REMARK   45  A    between atoms: _109  and  _111
REMARK   46  A    between atoms: _111  and  _112
REMARK   47  A    between atoms: _115  and  _117
REMARK   48  A    between atoms: _117  and  _118
REMARK   49  A    between atoms: _117  and  _120
REMARK   50  A    between atoms: _120  and  _121
REMARK   51  A    between atoms: _124  and  _126
REMARK   52  A    between atoms: _126  and  _127
REMARK   53  A    between atoms: _126  and  _129
REMARK   54  A    between atoms: _132  and  _134
REMARK   55  A    between atoms: _134  and  _135
REMARK   56  A    between atoms: _138  and  _140
REMARK   57  A    between atoms: _140  and  _141
REMARK   58  A    between atoms: _140  and  _143
REMARK   59  A    between atoms: _143  and  _144
REMARK   60  A    between atoms: _146  and  _148
REMARK   61  A    between atoms: _148  and  _149
REMARK   62  A    between atoms: _148  and  _151
REMARK   63  A    between atoms: _151  and  _152
REMARK   64  A    between atoms: _155  and  _157
REMARK   65  A    between atoms: _157  and  _158
REMARK   66  A    between atoms: _157  and  _160
REMARK   67  A    between atoms: _160  and  _161
REMARK   68  A    between atoms: _167  and  _169
REMARK   69  A    between atoms: _169  and  _170
REMARK   70  A    between atoms: _169  and  _172
REMARK   71  A    between atoms: _175  and  _177
REMARK   72  A    between atoms: _177  and  _178
REMARK   73  A    between atoms: _177  and  _180
REMARK   74  A    between atoms: _180  and  _181
REMARK   75  A    between atoms: _186  and  _188
REMARK   76  A    between atoms: _188  and  _189
REMARK   77  A    between atoms: _188  and  _191
REMARK   78  A    between atoms: _191  and  _192
REMARK   79  A    between atoms: _192  and  _193
REMARK   80  A    between atoms: _198  and  _200
REMARK   81  A    between atoms: _200  and  _201
REMARK   82  A    between atoms: _200  and  _203
REMARK   83  A    between atoms: _203  and  _204
REMARK   84  A    between atoms: _209  and  _210
REMARK   85  A    between atoms: _213  and  _214
REMARK   86  A    between atoms: _219  and  _221
REMARK   87  A    between atoms: _221  and  _222
REMARK   88  A    between atoms: _224  and  _226
REMARK   89  A    between atoms: _226  and  _227
REMARK   90  A    between atoms: _226  and  _229
REMARK   91  A    between atoms: _232  and  _234
REMARK   92  A    between atoms: _234  and  _235
REMARK   93  A    between atoms: _234  and  _237
REMARK   94  A    between atoms: _237  and  _238
REMARK   95  A    between atoms: _241  and  _243
REMARK   96  A    between atoms: _243  and  _244
REMARK   97  A    between atoms: _243  and  _246
REMARK   98  A    between atoms: _249  and  _251
REMARK   99  A    between atoms: _251  and  _252
REMARK  100  A    between atoms: _251  and  _254
REMARK  101  A    between atoms: _257  and  _259
REMARK  102  A    between atoms: _259  and  _260
REMARK  103  A    between atoms: _259  and  _262
REMARK  104  A    between atoms: _262  and  _263
REMARK  105  A    between atoms: _266  and  _268
REMARK  106  A    between atoms: _268  and  _269
REMARK  107  A    between atoms: _268  and  _271
REMARK  108  A    between atoms: _271  and  _272
REMARK  109  A    between atoms: _275  and  _277
REMARK  110  A    between atoms: _277  and  _278
REMARK  111  A    between atoms: _277  and  _280
REMARK  112  A    between atoms: _283  and  _285
REMARK  113  A    between atoms: _285  and  _286
REMARK  114  A    between atoms: _285  and  _288
REMARK  115  A    between atoms: _288  and  _289
REMARK  116  A    between atoms: _295  and  _297
REMARK  117  A    between atoms: _297  and  _298
REMARK  118  A    between atoms: _297  and  _300
REMARK  119  A    between atoms: _300  and  _301
REMARK  120  A    between atoms: _307  and  _309
REMARK  121  A    between atoms: _309  and  _310
REMARK  122  A    between atoms: _312  and  _314
REMARK  123  A    between atoms: _314  and  _315
REMARK  124  A    between atoms: _314  and  _317
REMARK  125  A    between atoms: _317  and  _318
REMARK  126  A    between atoms: _318  and  _319
REMARK  127  A    between atoms: _322  and  _324
REMARK  128  A    between atoms: _324  and  _325
REMARK  129  A    between atoms: _324  and  _327
REMARK  130  A    between atoms: _327  and  _328
REMARK  131  A    between atoms: _328  and  _329
REMARK  132  A    between atoms: _329  and  _330
REMARK  133  A    between atoms: _330  and  _331
REMARK  134  A    between atoms: _335  and  _337
REMARK  135  A    between atoms: _337  and  _338
REMARK  136  A    between atoms: _337  and  _340
REMARK  137  A    between atoms: _340  and  _341
REMARK  138  A    between atoms: _344  and  _346
REMARK  139  A    between atoms: _346  and  _347
REMARK  140  A    between atoms: _346  and  _349
REMARK  141  A    between atoms: _349  and  _350
REMARK  142  A    between atoms: _350  and  _351
REMARK  143  A    between atoms: _356  and  _358
REMARK  144  A    between atoms: _358  and  _359
REMARK  145  A    between atoms: _358  and  _361
REMARK  146  A    between atoms: _361  and  _362
REMARK  147  A    between atoms: _365  and  _367
REMARK  148  A    between atoms: _367  and  _368
REMARK  149  A    between atoms: _367  and  _370
REMARK  150  A    between atoms: _370  and  _371
REMARK  151  A    between atoms: _374  and  _376
REMARK  152  A    between atoms: _376  and  _377
REMARK  153  A    between atoms: _379  and  _381
REMARK  154  A    between atoms: _381  and  _382
REMARK  155  A    between atoms: _381  and  _384
REMARK  156  A    between atoms: _388  and  _389
REMARK  157  A    between atoms: _394  and  _396
REMARK  158  A    between atoms: _396  and  _397
REMARK  159  A    between atoms: _396  and  _399
REMARK  160  A    between atoms: _399  and  _400
REMARK  161  A    between atoms: _403  and  _405
REMARK  162  A    between atoms: _405  and  _406
REMARK  163  A    between atoms: _405  and  _408
REMARK  164  A    between atoms: _411  and  _413
REMARK  165  A    between atoms: _413  and  _414
REMARK  166  A    between atoms: _413  and  _416
REMARK  167  A    between atoms: _416  and  _417
REMARK  168  A    between atoms: _417  and  _418
REMARK  169  A    between atoms: _418  and  _419
REMARK  170  A    between atoms: _428  and  _430
REMARK  171  A    between atoms: _430  and  _431
REMARK  172  A    between atoms: _430  and  _433
REMARK  173  A    between atoms: _433  and  _434
REMARK  174  A    between atoms: _437  and  _439
REMARK  175  A    between atoms: _439  and  _440
REMARK  176  A    between atoms: _443  and  _445
REMARK  177  A    between atoms: _445  and  _446
REMARK  178  A    between atoms: _445  and  _448
REMARK  179  A    between atoms: _448  and  _449
REMARK  180  A    between atoms: _449  and  _450
REMARK  181  A    between atoms: _452  and  _454
REMARK  182  A    between atoms: _454  and  _455
REMARK  183  A    between atoms: _454  and  _457
REMARK  184  A    between atoms: _457  and  _458
REMARK  185  A    between atoms: _460  and  _462
REMARK  186  A    between atoms: _462  and  _463
REMARK  187  A    between atoms: _462  and  _465
REMARK  188  A    between atoms: _465  and  _466
REMARK  189  A    between atoms: _468  and  _470
REMARK  190  A    between atoms: _470  and  _471
REMARK  191  A    between atoms: _470  and  _473
REMARK  192  A    between atoms: _473  and  _474
REMARK  193  A    between atoms: _474  and  _475
REMARK  194  A    between atoms: _475  and  _476
REMARK  195  A    between atoms: _485  and  _487
REMARK  196  A    between atoms: _487  and  _488
REMARK  197  A    between atoms: _487  and  _490
REMARK  198  A    between atoms: _490  and  _491
REMARK  199  A    between atoms: _496  and  _498
REMARK  200  A    between atoms: _498  and  _499
REMARK  201  A    between atoms: _498  and  _501
REMARK  202  A    between atoms: _501  and  _502
REMARK  203  A    between atoms: _502  and  _503
REMARK  204  A    between atoms: _503  and  _504
REMARK  205  A    between atoms: _513  and  _515
REMARK  206  A    between atoms: _515  and  _516
REMARK  207  A    between atoms: _515  and  _518
REMARK  208  A    between atoms: _518  and  _519
REMARK  209  A    between atoms: _519  and  _520
REMARK  210  A    between atoms: _520  and  _521
REMARK  211  A    between atoms: _530  and  _532
REMARK  212  A    between atoms: _532  and  _533
REMARK  213  A    between atoms: _532  and  _535
REMARK  214  A    between atoms: _535  and  _536
REMARK  215  A    between atoms: _539  and  _541
REMARK  216  A    between atoms: _541  and  _542
REMARK  217  A    between atoms: _541  and  _544
REMARK  218  A    between atoms: _544  and  _545
REMARK  219  A    between atoms: _548  and  _550
REMARK  220  A    between atoms: _550  and  _551
REMARK  221  A    between atoms: _550  and  _553
REMARK  222  A    between atoms: _553  and  _554
REMARK                            x       y       z     vdW  Elec       q    Type
REMARK                         _______ _______ _______ _____ _____    ______ ____
ROOT
ATOM      1  O   HOH     1      12.815  10.664 -12.773  0.00  0.00    +0.000 OA
ENDROOT
TORSDOF 0
REMARK  Name = ../refined-set-2016/3ivx/3ivx_pocket.pdb
REMARK  222 active torsions:
REMARK  status: ('A' for Active; 'I' for Inactive)
REMARK    1  A    between atoms: _1  and  _3
REMARK    2  A    between atoms: _3  and  _4
REMARK    3  A    between atoms: _3  and  _6
REMARK    4  A    between atoms: _6  and  _7
REMARK    5  A    between atoms: _10  and  _12
REMARK    6  A    between atoms: _12  and  _13
REMARK    7  A    between atoms: _12  and  _15
REMARK    8  A    between atoms: _19  and  _20
REMARK    9  A    between atoms: _25  and  _27
REMARK   10  A    between atoms: _27  and  _28
REMARK   11  A    between atoms: _27  and  _30
REMARK   12  A    between atoms: _30  and  _31
REMARK   13  A    between atoms: _34  and  _36
REMARK   14  A    between atoms: _36  and  _37
REMARK   15  A    between atoms: _36  and  _39
REMARK   16  A    between atoms: _39  and  _40
REMARK   17  A    between atoms: _40  and  _41
REMARK   18  A    between atoms: _43  and  _45
REMARK   19  A    between atoms: _45  and  _46
REMARK   20  A    between atoms: _48  and  _50
REMARK   21  A    between atoms: _50  and  _51
REMARK   22  A    between atoms: _54  and  _56
REMARK   23  A    between atoms: _56  and  _57
REMARK   24  A    between atoms: _56  and  _59
REMARK   25  A    between atoms: _59  and  _60
REMARK   26  A    between atoms: _63  and  _65
REMARK   27  A    between atoms: _65  and  _66
REMARK   28  A    between atoms: _65  and  _68
REMARK   29  A    between atoms: _68  and  _69
REMARK   30  A    between atoms: _74  and  _76
REMARK   31  A    between atoms: _76  and  _77
REMARK   32  A    between atoms: _76  and  _79
REMARK   33  A    between atoms: _79  and  _80
REMARK   34  A    between atoms: _80  and  _81
REMARK   35  A    between atoms: _84  and  _86
REMARK   36  A    between atoms: _86  and  _87
REMARK   37  A    between atoms: _89  and  _91
REMARK   38  A    between atoms: _91  and  _92
REMARK   39  A    between atoms: _91  and  _94
REMARK   40  A    between atoms: _94  and  _95
REMARK   41  A    between atoms: _100  and  _102
REMARK   42  A    between atoms: _102  and  _103
REMARK   43  A    between atoms: _102  and  _105
REMARK   44  A    between atoms: _105  and  _106
REMARK   45  A    between atoms: _109  and  _111
REMARK   46  A    between atoms: _111  and  _112
REMARK   47  A    between atoms: _115  and  _117
REMARK   48  A    between atoms: _117  and  _118
REMARK   49  A    between atoms: _117  and  _120
REMARK   50  A    between atoms: _120  and  _121
REMARK   51  A    between atoms: _124  and  _126
REMARK   52  A    between atoms: _126  and  _127
REMARK   53  A    between atoms: _126  and  _129
REMARK   54  A    between atoms: _132  and  _134
REMARK   55  A    between atoms: _134  and  _135
REMARK   56  A    between atoms: _138  and  _140
REMARK   57  A    between atoms: _140  and  _141
REMARK   58  A    between atoms: _140  and  _143
REMARK   59  A    between atoms: _143  and  _144
REMARK   60  A    between atoms: _146  and  _148
REMARK   61  A    between atoms: _148  and  _149
REMARK   62  A    between atoms: _148  and  _151
REMARK   63  A    between atoms: _151  and  _152
REMARK   64  A    between atoms: _155  and  _157
REMARK   65  A    between atoms: _157  and  _158
REMARK   66  A    between atoms: _157  and  _160
REMARK   67  A    between atoms: _160  and  _161
REMARK   68  A    between atoms: _167  and  _169
REMARK   69  A    between atoms: _169  and  _170
REMARK   70  A    between atoms: _169  and  _172
REMARK   71  A    between atoms: _175  and  _177
REMARK   72  A    between atoms: _177  and  _178
REMARK   73  A    between atoms: _177  and  _180
REMARK   74  A    between atoms: _180  and  _181
REMARK   75  A    between atoms: _186  and  _188
REMARK   76  A    between atoms: _188  and  _189
REMARK   77  A    between atoms: _188  and  _191
REMARK   78  A    between atoms: _191  and  _192
REMARK   79  A    between atoms: _192  and  _193
REMARK   80  A    between atoms: _198  and  _200
REMARK   81  A    between atoms: _200  and  _201
REMARK   82  A    between atoms: _200  and  _203
REMARK   83  A    between atoms: _203  and  _204
REMARK   84  A    between atoms: _209  and  _210
REMARK   85  A    between atoms: _213  and  _214
REMARK   86  A    between atoms: _219  and  _221
REMARK   87  A    between atoms: _221  and  _222
REMARK   88  A    between atoms: _224  and  _226
REMARK   89  A    between atoms: _226  and  _227
REMARK   90  A    between atoms: _226  and  _229
REMARK   91  A    between atoms: _232  and  _234
REMARK   92  A    between atoms: _234  and  _235
REMARK   93  A    between atoms: _234  and  _237
REMARK   94  A    between atoms: _237  and  _238
REMARK   95  A    between atoms: _241  and  _243
REMARK   96  A    between atoms: _243  and  _244
REMARK   97  A    between atoms: _243  and  _246
REMARK   98  A    between atoms: _249  and  _251
REMARK   99  A    between atoms: _251  and  _252
REMARK  100  A    between atoms: _251  and  _254
REMARK  101  A    between atoms: _257  and  _259
REMARK  102  A    between atoms: _259  and  _260
REMARK  103  A    between atoms: _259  and  _262
REMARK  104  A    between atoms: _262  and  _263
REMARK  105  A    between atoms: _266  and  _268
REMARK  106  A    between atoms: _268  and  _269
REMARK  107  A    between atoms: _268  and  _271
REMARK  108  A    between atoms: _271  and  _272
REMARK  109  A    between atoms: _275  and  _277
REMARK  110  A    between atoms: _277  and  _278
REMARK  111  A    between atoms: _277  and  _280
REMARK  112  A    between atoms: _283  and  _285
REMARK  113  A    between atoms: _285  and  _286
REMARK  114  A    between atoms: _285  and  _288
REMARK  115  A    between atoms: _288  and  _289
REMARK  116  A    between atoms: _295  and  _297
REMARK  117  A    between atoms: _297  and  _298
REMARK  118  A    between atoms: _297  and  _300
REMARK  119  A    between atoms: _300  and  _301
REMARK  120  A    between atoms: _307  and  _309
REMARK  121  A    between atoms: _309  and  _310
REMARK  122  A    between atoms: _312  and  _314
REMARK  123  A    between atoms: _314  and  _315
REMARK  124  A    between atoms: _314  and  _317
REMARK  125  A    between atoms: _317  and  _318
REMARK  126  A    between atoms: _318  and  _319
REMARK  127  A    between atoms: _322  and  _324
REMARK  128  A    between atoms: _324  and  _325
REMARK  129  A    between atoms: _324  and  _327
REMARK  130  A    between atoms: _327  and  _328
REMARK  131  A    between atoms: _328  and  _329
REMARK  132  A    between atoms: _329  and  _330
REMARK  133  A    between atoms: _330  and  _331
REMARK  134  A    between atoms: _335  and  _337
REMARK  135  A    between atoms: _337  and  _338
REMARK  136  A    between atoms: _337  and  _340
REMARK  137  A    between atoms: _340  and  _341
REMARK  138  A    between atoms: _344  and  _346
REMARK  139  A    between atoms: _346  and  _347
REMARK  140  A    between atoms: _346  and  _349
REMARK  141  A    between atoms: _349  and  _350
REMARK  142  A    between atoms: _350  and  _351
REMARK  143  A    between atoms: _356  and  _358
REMARK  144  A    between atoms: _358  and  _359
REMARK  145  A    between atoms: _358  and  _361
REMARK  146  A    between atoms: _361  and  _362
REMARK  147  A    between atoms: _365  and  _367
REMARK  148  A    between atoms: _367  and  _368
REMARK  149  A    between atoms: _367  and  _370
REMARK  150  A    between atoms: _370  and  _371
REMARK  151  A    between atoms: _374  and  _376
REMARK  152  A    between atoms: _376  and  _377
REMARK  153  A    between atoms: _379  and  _381
REMARK  154  A    between atoms: _381  and  _382
REMARK  155  A    between atoms: _381  and  _384
REMARK  156  A    between atoms: _388  and  _389
REMARK  157  A    between atoms: _394  and  _396
REMARK  158  A    between atoms: _396  and  _397
REMARK  159  A    between atoms: _396  and  _399
REMARK  160  A    between atoms: _399  and  _400
REMARK  161  A    between atoms: _403  and  _405
REMARK  162  A    between atoms: _405  and  _406
REMARK  163  A    between atoms: _405  and  _408
REMARK  164  A    between atoms: _411  and  _413
REMARK  165  A    between atoms: _413  and  _414
REMARK  166  A    between atoms: _413  and  _416
REMARK  167  A    between atoms: _416  and  _417
REMARK  168  A    between atoms: _417  and  _418
REMARK  169  A    between atoms: _418  and  _419
REMARK  170  A    between atoms: _428  and  _430
REMARK  171  A    between atoms: _430  and  _431
REMARK  172  A    between atoms: _430  and  _433
REMARK  173  A    between atoms: _433  and  _434
REMARK  174  A    between atoms: _437  and  _439
REMARK  175  A    between atoms: _439  and  _440
REMARK  176  A    between atoms: _443  and  _445
REMARK  177  A    between atoms: _445  and  _446
REMARK  178  A    between atoms: _445  and  _448
REMARK  179  A    between atoms: _448  and  _449
REMARK  180  A    between atoms: _449  and  _450
REMARK  181  A    between atoms: _452  and  _454
REMARK  182  A    between atoms: _454  and  _455
REMARK  183  A    between atoms: _454  and  _457
REMARK  184  A    between atoms: _457  and  _458
REMARK  185  A    between atoms: _460  and  _462
REMARK  186  A    between atoms: _462  and  _463
REMARK  187  A    between atoms: _462  and  _465
REMARK  188  A    between atoms: _465  and  _466
REMARK  189  A    between atoms: _468  and  _470
REMARK  190  A    between atoms: _470  and  _471
REMARK  191  A    between atoms: _470  and  _473
REMARK  192  A    between atoms: _473  and  _474
REMARK  193  A    between atoms: _474  and  _475
REMARK  194  A    between atoms: _475  and  _476
REMARK  195  A    between atoms: _485  and  _487
REMARK  196  A    between atoms: _487  and  _488
REMARK  197  A    between atoms: _487  and  _490
REMARK  198  A    between atoms: _490  and  _491
REMARK  199  A    between atoms: _496  and  _498
REMARK  200  A    between atoms: _498  and  _499
REMARK  201  A    between atoms: _498  and  _501
REMARK  202  A    between atoms: _501  and  _502
REMARK  203  A    between atoms: _502  and  _503
REMARK  204  A    between atoms: _503  and  _504
REMARK  205  A    between atoms: _513  and  _515
REMARK  206  A    between atoms: _515  and  _516
REMARK  207  A    between atoms: _515  and  _518
REMARK  208  A    between atoms: _518  and  _519
REMARK  209  A    between atoms: _519  and  _520
REMARK  210  A    between atoms: _520  and  _521
REMARK  211  A    between atoms: _530  and  _532
REMARK  212  A    between atoms: _532  and  _533
REMARK  213  A    between atoms: _532  and  _535
REMARK  214  A    between atoms: _535  and  _536
REMARK  215  A    between atoms: _539  and  _541
REMARK  216  A    between atoms: _541  and  _542
REMARK  217  A    between atoms: _541  and  _544
REMARK  218  A    between atoms: _544  and  _545
REMARK  219  A    between atoms: _548  and  _550
REMARK  220  A    between atoms: _550  and  _551
REMARK  221  A    between atoms: _550  and  _553
REMARK  222  A    between atoms: _553  and  _554
REMARK                            x       y       z     vdW  Elec       q    Type
REMARK                         _______ _______ _______ _____ _____    ______ ____
ROOT
ATOM      1  O   HOH     1      12.831   7.364  -4.166  0.00  0.00    +0.000 OA
ENDROOT
TORSDOF 0
REMARK  Name = ../refined-set-2016/3ivx/3ivx_pocket.pdb
REMARK  222 active torsions:
REMARK  status: ('A' for Active; 'I' for Inactive)
REMARK    1  A    between atoms: _1  and  _3
REMARK    2  A    between atoms: _3  and  _4
REMARK    3  A    between atoms: _3  and  _6
REMARK    4  A    between atoms: _6  and  _7
REMARK    5  A    between atoms: _10  and  _12
REMARK    6  A    between atoms: _12  and  _13
REMARK    7  A    between atoms: _12  and  _15
REMARK    8  A    between atoms: _19  and  _20
REMARK    9  A    between atoms: _25  and  _27
REMARK   10  A    between atoms: _27  and  _28
REMARK   11  A    between atoms: _27  and  _30
REMARK   12  A    between atoms: _30  and  _31
REMARK   13  A    between atoms: _34  and  _36
REMARK   14  A    between atoms: _36  and  _37
REMARK   15  A    between atoms: _36  and  _39
REMARK   16  A    between atoms: _39  and  _40
REMARK   17  A    between atoms: _40  and  _41
REMARK   18  A    between atoms: _43  and  _45
REMARK   19  A    between atoms: _45  and  _46
REMARK   20  A    between atoms: _48  and  _50
REMARK   21  A    between atoms: _50  and  _51
REMARK   22  A    between atoms: _54  and  _56
REMARK   23  A    between atoms: _56  and  _57
REMARK   24  A    between atoms: _56  and  _59
REMARK   25  A    between atoms: _59  and  _60
REMARK   26  A    between atoms: _63  and  _65
REMARK   27  A    between atoms: _65  and  _66
REMARK   28  A    between atoms: _65  and  _68
REMARK   29  A    between atoms: _68  and  _69
REMARK   30  A    between atoms: _74  and  _76
REMARK   31  A    between atoms: _76  and  _77
REMARK   32  A    between atoms: _76  and  _79
REMARK   33  A    between atoms: _79  and  _80
REMARK   34  A    between atoms: _80  and  _81
REMARK   35  A    between atoms: _84  and  _86
REMARK   36  A    between atoms: _86  and  _87
REMARK   37  A    between atoms: _89  and  _91
REMARK   38  A    between atoms: _91  and  _92
REMARK   39  A    between atoms: _91  and  _94
REMARK   40  A    between atoms: _94  and  _95
REMARK   41  A    between atoms: _100  and  _102
REMARK   42  A    between atoms: _102  and  _103
REMARK   43  A    between atoms: _102  and  _105
REMARK   44  A    between atoms: _105  and  _106
REMARK   45  A    between atoms: _109  and  _111
REMARK   46  A    between atoms: _111  and  _112
REMARK   47  A    between atoms: _115  and  _117
REMARK   48  A    between atoms: _117  and  _118
REMARK   49  A    between atoms: _117  and  _120
REMARK   50  A    between atoms: _120  and  _121
REMARK   51  A    between atoms: _124  and  _126
REMARK   52  A    between atoms: _126  and  _127
REMARK   53  A    between atoms: _126  and  _129
REMARK   54  A    between atoms: _132  and  _134
REMARK   55  A    between atoms: _134  and  _135
REMARK   56  A    between atoms: _138  and  _140
REMARK   57  A    between atoms: _140  and  _141
REMARK   58  A    between atoms: _140  and  _143
REMARK   59  A    between atoms: _143  and  _144
REMARK   60  A    between atoms: _146  and  _148
REMARK   61  A    between atoms: _148  and  _149
REMARK   62  A    between atoms: _148  and  _151
REMARK   63  A    between atoms: _151  and  _152
REMARK   64  A    between atoms: _155  and  _157
REMARK   65  A    between atoms: _157  and  _158
REMARK   66  A    between atoms: _157  and  _160
REMARK   67  A    between atoms: _160  and  _161
REMARK   68  A    between atoms: _167  and  _169
REMARK   69  A    between atoms: _169  and  _170
REMARK   70  A    between atoms: _169  and  _172
REMARK   71  A    between atoms: _175  and  _177
REMARK   72  A    between atoms: _177  and  _178
REMARK   73  A    between atoms: _177  and  _180
REMARK   74  A    between atoms: _180  and  _181
REMARK   75  A    between atoms: _186  and  _188
REMARK   76  A    between atoms: _188  and  _189
REMARK   77  A    between atoms: _188  and  _191
REMARK   78  A    between atoms: _191  and  _192
REMARK   79  A    between atoms: _192  and  _193
REMARK   80  A    between atoms: _198  and  _200
REMARK   81  A    between atoms: _200  and  _201
REMARK   82  A    between atoms: _200  and  _203
REMARK   83  A    between atoms: _203  and  _204
REMARK   84  A    between atoms: _209  and  _210
REMARK   85  A    between atoms: _213  and  _214
REMARK   86  A    between atoms: _219  and  _221
REMARK   87  A    between atoms: _221  and  _222
REMARK   88  A    between atoms: _224  and  _226
REMARK   89  A    between atoms: _226  and  _227
REMARK   90  A    between atoms: _226  and  _229
REMARK   91  A    between atoms: _232  and  _234
REMARK   92  A    between atoms: _234  and  _235
REMARK   93  A    between atoms: _234  and  _237
REMARK   94  A    between atoms: _237  and  _238
REMARK   95  A    between atoms: _241  and  _243
REMARK   96  A    between atoms: _243  and  _244
REMARK   97  A    between atoms: _243  and  _246
REMARK   98  A    between atoms: _249  and  _251
REMARK   99  A    between atoms: _251  and  _252
REMARK  100  A    between atoms: _251  and  _254
REMARK  101  A    between atoms: _257  and  _259
REMARK  102  A    between atoms: _259  and  _260
REMARK  103  A    between atoms: _259  and  _262
REMARK  104  A    between atoms: _262  and  _263
REMARK  105  A    between atoms: _266  and  _268
REMARK  106  A    between atoms: _268  and  _269
REMARK  107  A    between atoms: _268  and  _271
REMARK  108  A    between atoms: _271  and  _272
REMARK  109  A    between atoms: _275  and  _277
REMARK  110  A    between atoms: _277  and  _278
REMARK  111  A    between atoms: _277  and  _280
REMARK  112  A    between atoms: _283  and  _285
REMARK  113  A    between atoms: _285  and  _286
REMARK  114  A    between atoms: _285  and  _288
REMARK  115  A    between atoms: _288  and  _289
REMARK  116  A    between atoms: _295  and  _297
REMARK  117  A    between atoms: _297  and  _298
REMARK  118  A    between atoms: _297  and  _300
REMARK  119  A    between atoms: _300  and  _301
REMARK  120  A    between atoms: _307  and  _309
REMARK  121  A    between atoms: _309  and  _310
REMARK  122  A    between atoms: _312  and  _314
REMARK  123  A    between atoms: _314  and  _315
REMARK  124  A    between atoms: _314  and  _317
REMARK  125  A    between atoms: _317  and  _318
REMARK  126  A    between atoms: _318  and  _319
REMARK  127  A    between atoms: _322  and  _324
REMARK  128  A    between atoms: _324  and  _325
REMARK  129  A    between atoms: _324  and  _327
REMARK  130  A    between atoms: _327  and  _328
REMARK  131  A    between atoms: _328  and  _329
REMARK  132  A    between atoms: _329  and  _330
REMARK  133  A    between atoms: _330  and  _331
REMARK  134  A    between atoms: _335  and  _337
REMARK  135  A    between atoms: _337  and  _338
REMARK  136  A    between atoms: _337  and  _340
REMARK  137  A    between atoms: _340  and  _341
REMARK  138  A    between atoms: _344  and  _346
REMARK  139  A    between atoms: _346  and  _347
REMARK  140  A    between atoms: _346  and  _349
REMARK  141  A    between atoms: _349  and  _350
REMARK  142  A    between atoms: _350  and  _351
REMARK  143  A    between atoms: _356  and  _358
REMARK  144  A    between atoms: _358  and  _359
REMARK  145  A    between atoms: _358  and  _361
REMARK  146  A    between atoms: _361  and  _362
REMARK  147  A    between atoms: _365  and  _367
REMARK  148  A    between atoms: _367  and  _368
REMARK  149  A    between atoms: _367  and  _370
REMARK  150  A    between atoms: _370  and  _371
REMARK  151  A    between atoms: _374  and  _376
REMARK  152  A    between atoms: _376  and  _377
REMARK  153  A    between atoms: _379  and  _381
REMARK  154  A    between atoms: _381  and  _382
REMARK  155  A    between atoms: _381  and  _384
REMARK  156  A    between atoms: _388  and  _389
REMARK  157  A    between atoms: _394  and  _396
REMARK  158  A    between atoms: _396  and  _397
REMARK  159  A    between atoms: _396  and  _399
REMARK  160  A    between atoms: _399  and  _400
REMARK  161  A    between atoms: _403  and  _405
REMARK  162  A    between atoms: _405  and  _406
REMARK  163  A    between atoms: _405  and  _408
REMARK  164  A    between atoms: _411  and  _413
REMARK  165  A    between atoms: _413  and  _414
REMARK  166  A    between atoms: _413  and  _416
REMARK  167  A    between atoms: _416  and  _417
REMARK  168  A    between atoms: _417  and  _418
REMARK  169  A    between atoms: _418  and  _419
REMARK  170  A    between atoms: _428  and  _430
REMARK  171  A    between atoms: _430  and  _431
REMARK  172  A    between atoms: _430  and  _433
REMARK  173  A    between atoms: _433  and  _434
REMARK  174  A    between atoms: _437  and  _439
REMARK  175  A    between atoms: _439  and  _440
REMARK  176  A    between atoms: _443  and  _445
REMARK  177  A    between atoms: _445  and  _446
REMARK  178  A    between atoms: _445  and  _448
REMARK  179  A    between atoms: _448  and  _449
REMARK  180  A    between atoms: _449  and  _450
REMARK  181  A    between atoms: _452  and  _454
REMARK  182  A    between atoms: _454  and  _455
REMARK  183  A    between atoms: _454  and  _457
REMARK  184  A    between atoms: _457  and  _458
REMARK  185  A    between atoms: _460  and  _462
REMARK  186  A    between atoms: _462  and  _463
REMARK  187  A    between atoms: _462  and  _465
REMARK  188  A    between atoms: _465  and  _466
REMARK  189  A    between atoms: _468  and  _470
REMARK  190  A    between atoms: _470  and  _471
REMARK  191  A    between atoms: _470  and  _473
REMARK  192  A    between atoms: _473  and  _474
REMARK  193  A    between atoms: _474  and  _475
REMARK  194  A    between atoms: _475  and  _476
REMARK  195  A    between atoms: _485  and  _487
REMARK  196  A    between atoms: _487  and  _488
REMARK  197  A    between atoms: _487  and  _490
REMARK  198  A    between atoms: _490  and  _491
REMARK  199  A    between atoms: _496  and  _498
REMARK  200  A    between atoms: _498  and  _499
REMARK  201  A    between atoms: _498  and  _501
REMARK  202  A    between atoms: _501  and  _502
REMARK  203  A    between atoms: _502  and  _503
REMARK  204  A    between atoms: _503  and  _504
REMARK  205  A    between atoms: _513  and  _515
REMARK  206  A    between atoms: _515  and  _516
REMARK  207  A    between atoms: _515  and  _518
REMARK  208  A    between atoms: _518  and  _519
REMARK  209  A    between atoms: _519  and  _520
REMARK  210  A    between atoms: _520  and  _521
REMARK  211  A    between atoms: _530  and  _532
REMARK  212  A    between atoms: _532  and  _533
REMARK  213  A    between atoms: _532  and  _535
REMARK  214  A    between atoms: _535  and  _536
REMARK  215  A    between atoms: _539  and  _541
REMARK  216  A    between atoms: _541  and  _542
REMARK  217  A    between atoms: _541  and  _544
REMARK  218  A    between atoms: _544  and  _545
REMARK  219  A    between atoms: _548  and  _550
REMARK  220  A    between atoms: _550  and  _551
REMARK  221  A    between atoms: _550  and  _553
REMARK  222  A    between atoms: _553  and  _554
REMARK                            x       y       z     vdW  Elec       q    Type
REMARK                         _______ _______ _______ _____ _____    ______ ____
ROOT
ATOM      1  O   HOH     1      15.143   7.079  -0.606  0.00  0.00    +0.000 OA
ENDROOT
TORSDOF 0
REMARK  Name = ../refined-set-2016/3ivx/3ivx_pocket.pdb
REMARK  222 active torsions:
REMARK  status: ('A' for Active; 'I' for Inactive)
REMARK    1  A    between atoms: _1  and  _3
REMARK    2  A    between atoms: _3  and  _4
REMARK    3  A    between atoms: _3  and  _6
REMARK    4  A    between atoms: _6  and  _7
REMARK    5  A    between atoms: _10  and  _12
REMARK    6  A    between atoms: _12  and  _13
REMARK    7  A    between atoms: _12  and  _15
REMARK    8  A    between atoms: _19  and  _20
REMARK    9  A    between atoms: _25  and  _27
REMARK   10  A    between atoms: _27  and  _28
REMARK   11  A    between atoms: _27  and  _30
REMARK   12  A    between atoms: _30  and  _31
REMARK   13  A    between atoms: _34  and  _36
REMARK   14  A    between atoms: _36  and  _37
REMARK   15  A    between atoms: _36  and  _39
REMARK   16  A    between atoms: _39  and  _40
REMARK   17  A    between atoms: _40  and  _41
REMARK   18  A    between atoms: _43  and  _45
REMARK   19  A    between atoms: _45  and  _46
REMARK   20  A    between atoms: _48  and  _50
REMARK   21  A    between atoms: _50  and  _51
REMARK   22  A    between atoms: _54  and  _56
REMARK   23  A    between atoms: _56  and  _57
REMARK   24  A    between atoms: _56  and  _59
REMARK   25  A    between atoms: _59  and  _60
REMARK   26  A    between atoms: _63  and  _65
REMARK   27  A    between atoms: _65  and  _66
REMARK   28  A    between atoms: _65  and  _68
REMARK   29  A    between atoms: _68  and  _69
REMARK   30  A    between atoms: _74  and  _76
REMARK   31  A    between atoms: _76  and  _77
REMARK   32  A    between atoms: _76  and  _79
REMARK   33  A    between atoms: _79  and  _80
REMARK   34  A    between atoms: _80  and  _81
REMARK   35  A    between atoms: _84  and  _86
REMARK   36  A    between atoms: _86  and  _87
REMARK   37  A    between atoms: _89  and  _91
REMARK   38  A    between atoms: _91  and  _92
REMARK   39  A    between atoms: _91  and  _94
REMARK   40  A    between atoms: _94  and  _95
REMARK   41  A    between atoms: _100  and  _102
REMARK   42  A    between atoms: _102  and  _103
REMARK   43  A    between atoms: _102  and  _105
REMARK   44  A    between atoms: _105  and  _106
REMARK   45  A    between atoms: _109  and  _111
REMARK   46  A    between atoms: _111  and  _112
REMARK   47  A    between atoms: _115  and  _117
REMARK   48  A    between atoms: _117  and  _118
REMARK   49  A    between atoms: _117  and  _120
REMARK   50  A    between atoms: _120  and  _121
REMARK   51  A    between atoms: _124  and  _126
REMARK   52  A    between atoms: _126  and  _127
REMARK   53  A    between atoms: _126  and  _129
REMARK   54  A    between atoms: _132  and  _134
REMARK   55  A    between atoms: _134  and  _135
REMARK   56  A    between atoms: _138  and  _140
REMARK   57  A    between atoms: _140  and  _141
REMARK   58  A    between atoms: _140  and  _143
REMARK   59  A    between atoms: _143  and  _144
REMARK   60  A    between atoms: _146  and  _148
REMARK   61  A    between atoms: _148  and  _149
REMARK   62  A    between atoms: _148  and  _151
REMARK   63  A    between atoms: _151  and  _152
REMARK   64  A    between atoms: _155  and  _157
REMARK   65  A    between atoms: _157  and  _158
REMARK   66  A    between atoms: _157  and  _160
REMARK   67  A    between atoms: _160  and  _161
REMARK   68  A    between atoms: _167  and  _169
REMARK   69  A    between atoms: _169  and  _170
REMARK   70  A    between atoms: _169  and  _172
REMARK   71  A    between atoms: _175  and  _177
REMARK   72  A    between atoms: _177  and  _178
REMARK   73  A    between atoms: _177  and  _180
REMARK   74  A    between atoms: _180  and  _181
REMARK   75  A    between atoms: _186  and  _188
REMARK   76  A    between atoms: _188  and  _189
REMARK   77  A    between atoms: _188  and  _191
REMARK   78  A    between atoms: _191  and  _192
REMARK   79  A    between atoms: _192  and  _193
REMARK   80  A    between atoms: _198  and  _200
REMARK   81  A    between atoms: _200  and  _201
REMARK   82  A    between atoms: _200  and  _203
REMARK   83  A    between atoms: _203  and  _204
REMARK   84  A    between atoms: _209  and  _210
REMARK   85  A    between atoms: _213  and  _214
REMARK   86  A    between atoms: _219  and  _221
REMARK   87  A    between atoms: _221  and  _222
REMARK   88  A    between atoms: _224  and  _226
REMARK   89  A    between atoms: _226  and  _227
REMARK   90  A    between atoms: _226  and  _229
REMARK   91  A    between atoms: _232  and  _234
REMARK   92  A    between atoms: _234  and  _235
REMARK   93  A    between atoms: _234  and  _237
REMARK   94  A    between atoms: _237  and  _238
REMARK   95  A    between atoms: _241  and  _243
REMARK   96  A    between atoms: _243  and  _244
REMARK   97  A    between atoms: _243  and  _246
REMARK   98  A    between atoms: _249  and  _251
REMARK   99  A    between atoms: _251  and  _252
REMARK  100  A    between atoms: _251  and  _254
REMARK  101  A    between atoms: _257  and  _259
REMARK  102  A    between atoms: _259  and  _260
REMARK  103  A    between atoms: _259  and  _262
REMARK  104  A    between atoms: _262  and  _263
REMARK  105  A    between atoms: _266  and  _268
REMARK  106  A    between atoms: _268  and  _269
REMARK  107  A    between atoms: _268  and  _271
REMARK  108  A    between atoms: _271  and  _272
REMARK  109  A    between atoms: _275  and  _277
REMARK  110  A    between atoms: _277  and  _278
REMARK  111  A    between atoms: _277  and  _280
REMARK  112  A    between atoms: _283  and  _285
REMARK  113  A    between atoms: _285  and  _286
REMARK  114  A    between atoms: _285  and  _288
REMARK  115  A    between atoms: _288  and  _289
REMARK  116  A    between atoms: _295  and  _297
REMARK  117  A    between atoms: _297  and  _298
REMARK  118  A    between atoms: _297  and  _300
REMARK  119  A    between atoms: _300  and  _301
REMARK  120  A    between atoms: _307  and  _309
REMARK  121  A    between atoms: _309  and  _310
REMARK  122  A    between atoms: _312  and  _314
REMARK  123  A    between atoms: _314  and  _315
REMARK  124  A    between atoms: _314  and  _317
REMARK  125  A    between atoms: _317  and  _318
REMARK  126  A    between atoms: _318  and  _319
REMARK  127  A    between atoms: _322  and  _324
REMARK  128  A    between atoms: _324  and  _325
REMARK  129  A    between atoms: _324  and  _327
REMARK  130  A    between atoms: _327  and  _328
REMARK  131  A    between atoms: _328  and  _329
REMARK  132  A    between atoms: _329  and  _330
REMARK  133  A    between atoms: _330  and  _331
REMARK  134  A    between atoms: _335  and  _337
REMARK  135  A    between atoms: _337  and  _338
REMARK  136  A    between atoms: _337  and  _340
REMARK  137  A    between atoms: _340  and  _341
REMARK  138  A    between atoms: _344  and  _346
REMARK  139  A    between atoms: _346  and  _347
REMARK  140  A    between atoms: _346  and  _349
REMARK  141  A    between atoms: _349  and  _350
REMARK  142  A    between atoms: _350  and  _351
REMARK  143  A    between atoms: _356  and  _358
REMARK  144  A    between atoms: _358  and  _359
REMARK  145  A    between atoms: _358  and  _361
REMARK  146  A    between atoms: _361  and  _362
REMARK  147  A    between atoms: _365  and  _367
REMARK  148  A    between atoms: _367  and  _368
REMARK  149  A    between atoms: _367  and  _370
REMARK  150  A    between atoms: _370  and  _371
REMARK  151  A    between atoms: _374  and  _376
REMARK  152  A    between atoms: _376  and  _377
REMARK  153  A    between atoms: _379  and  _381
REMARK  154  A    between atoms: _381  and  _382
REMARK  155  A    between atoms: _381  and  _384
REMARK  156  A    between atoms: _388  and  _389
REMARK  157  A    between atoms: _394  and  _396
REMARK  158  A    between atoms: _396  and  _397
REMARK  159  A    between atoms: _396  and  _399
REMARK  160  A    between atoms: _399  and  _400
REMARK  161  A    between atoms: _403  and  _405
REMARK  162  A    between atoms: _405  and  _406
REMARK  163  A    between atoms: _405  and  _408
REMARK  164  A    between atoms: _411  and  _413
REMARK  165  A    between atoms: _413  and  _414
REMARK  166  A    between atoms: _413  and  _416
REMARK  167  A    between atoms: _416  and  _417
REMARK  168  A    between atoms: _417  and  _418
REMARK  169  A    between atoms: _418  and  _419
REMARK  170  A    between atoms: _428  and  _430
REMARK  171  A    between atoms: _430  and  _431
REMARK  172  A    between atoms: _430  and  _433
REMARK  173  A    between atoms: _433  and  _434
REMARK  174  A    between atoms: _437  and  _439
REMARK  175  A    between atoms: _439  and  _440
REMARK  176  A    between atoms: _443  and  _445
REMARK  177  A    between atoms: _445  and  _446
REMARK  178  A    between atoms: _445  and  _448
REMARK  179  A    between atoms: _448  and  _449
REMARK  180  A    between atoms: _449  and  _450
REMARK  181  A    between atoms: _452  and  _454
REMARK  182  A    between atoms: _454  and  _455
REMARK  183  A    between atoms: _454  and  _457
REMARK  184  A    between atoms: _457  and  _458
REMARK  185  A    between atoms: _460  and  _462
REMARK  186  A    between atoms: _462  and  _463
REMARK  187  A    between atoms: _462  and  _465
REMARK  188  A    between atoms: _465  and  _466
REMARK  189  A    between atoms: _468  and  _470
REMARK  190  A    between atoms: _470  and  _471
REMARK  191  A    between atoms: _470  and  _473
REMARK  192  A    between atoms: _473  and  _474
REMARK  193  A    between atoms: _474  and  _475
REMARK  194  A    between atoms: _475  and  _476
REMARK  195  A    between atoms: _485  and  _487
REMARK  196  A    between atoms: _487  and  _488
REMARK  197  A    between atoms: _487  and  _490
REMARK  198  A    between atoms: _490  and  _491
REMARK  199  A    between atoms: _496  and  _498
REMARK  200  A    between atoms: _498  and  _499
REMARK  201  A    between atoms: _498  and  _501
REMARK  202  A    between atoms: _501  and  _502
REMARK  203  A    between atoms: _502  and  _503
REMARK  204  A    between atoms: _503  and  _504
REMARK  205  A    between atoms: _513  and  _515
REMARK  206  A    between atoms: _515  and  _516
REMARK  207  A    between atoms: _515  and  _518
REMARK  208  A    between atoms: _518  and  _519
REMARK  209  A    between atoms: _519  and  _520
REMARK  210  A    between atoms: _520  and  _521
REMARK  211  A    between atoms: _530  and  _532
REMARK  212  A    between atoms: _532  and  _533
REMARK  213  A    between atoms: _532  and  _535
REMARK  214  A    between atoms: _535  and  _536
REMARK  215  A    between atoms: _539  and  _541
REMARK  216  A    between atoms: _541  and  _542
REMARK  217  A    between atoms: _541  and  _544
REMARK  218  A    between atoms: _544  and  _545
REMARK  219  A    between atoms: _548  and  _550
REMARK  220  A    between atoms: _550  and  _551
REMARK  221  A    between atoms: _550  and  _553
REMARK  222  A    between atoms: _553  and  _554
REMARK                            x       y       z     vdW  Elec       q    Type
REMARK                         _______ _______ _______ _____ _____    ______ ____
ROOT
ATOM      1  O   HOH     1      15.714   3.291  -7.202  0.00  0.00    +0.000 OA
ENDROOT
TORSDOF 0
REMARK  Name = ../refined-set-2016/3ivx/3ivx_pocket.pdb
REMARK  222 active torsions:
REMARK  status: ('A' for Active; 'I' for Inactive)
REMARK    1  A    between atoms: _1  and  _3
REMARK    2  A    between atoms: _3  and  _4
REMARK    3  A    between atoms: _3  and  _6
REMARK    4  A    between atoms: _6  and  _7
REMARK    5  A    between atoms: _10  and  _12
REMARK    6  A    between atoms: _12  and  _13
REMARK    7  A    between atoms: _12  and  _15
REMARK    8  A    between atoms: _19  and  _20
REMARK    9  A    between atoms: _25  and  _27
REMARK   10  A    between atoms: _27  and  _28
REMARK   11  A    between atoms: _27  and  _30
REMARK   12  A    between atoms: _30  and  _31
REMARK   13  A    between atoms: _34  and  _36
REMARK   14  A    between atoms: _36  and  _37
REMARK   15  A    between atoms: _36  and  _39
REMARK   16  A    between atoms: _39  and  _40
REMARK   17  A    between atoms: _40  and  _41
REMARK   18  A    between atoms: _43  and  _45
REMARK   19  A    between atoms: _45  and  _46
REMARK   20  A    between atoms: _48  and  _50
REMARK   21  A    between atoms: _50  and  _51
REMARK   22  A    between atoms: _54  and  _56
REMARK   23  A    between atoms: _56  and  _57
REMARK   24  A    between atoms: _56  and  _59
REMARK   25  A    between atoms: _59  and  _60
REMARK   26  A    between atoms: _63  and  _65
REMARK   27  A    between atoms: _65  and  _66
REMARK   28  A    between atoms: _65  and  _68
REMARK   29  A    between atoms: _68  and  _69
REMARK   30  A    between atoms: _74  and  _76
REMARK   31  A    between atoms: _76  and  _77
REMARK   32  A    between atoms: _76  and  _79
REMARK   33  A    between atoms: _79  and  _80
REMARK   34  A    between atoms: _80  and  _81
REMARK   35  A    between atoms: _84  and  _86
REMARK   36  A    between atoms: _86  and  _87
REMARK   37  A    between atoms: _89  and  _91
REMARK   38  A    between atoms: _91  and  _92
REMARK   39  A    between atoms: _91  and  _94
REMARK   40  A    between atoms: _94  and  _95
REMARK   41  A    between atoms: _100  and  _102
REMARK   42  A    between atoms: _102  and  _103
REMARK   43  A    between atoms: _102  and  _105
REMARK   44  A    between atoms: _105  and  _106
REMARK   45  A    between atoms: _109  and  _111
REMARK   46  A    between atoms: _111  and  _112
REMARK   47  A    between atoms: _115  and  _117
REMARK   48  A    between atoms: _117  and  _118
REMARK   49  A    between atoms: _117  and  _120
REMARK   50  A    between atoms: _120  and  _121
REMARK   51  A    between atoms: _124  and  _126
REMARK   52  A    between atoms: _126  and  _127
REMARK   53  A    between atoms: _126  and  _129
REMARK   54  A    between atoms: _132  and  _134
REMARK   55  A    between atoms: _134  and  _135
REMARK   56  A    between atoms: _138  and  _140
REMARK   57  A    between atoms: _140  and  _141
REMARK   58  A    between atoms: _140  and  _143
REMARK   59  A    between atoms: _143  and  _144
REMARK   60  A    between atoms: _146  and  _148
REMARK   61  A    between atoms: _148  and  _149
REMARK   62  A    between atoms: _148  and  _151
REMARK   63  A    between atoms: _151  and  _152
REMARK   64  A    between atoms: _155  and  _157
REMARK   65  A    between atoms: _157  and  _158
REMARK   66  A    between atoms: _157  and  _160
REMARK   67  A    between atoms: _160  and  _161
REMARK   68  A    between atoms: _167  and  _169
REMARK   69  A    between atoms: _169  and  _170
REMARK   70  A    between atoms: _169  and  _172
REMARK   71  A    between atoms: _175  and  _177
REMARK   72  A    between atoms: _177  and  _178
REMARK   73  A    between atoms: _177  and  _180
REMARK   74  A    between atoms: _180  and  _181
REMARK   75  A    between atoms: _186  and  _188
REMARK   76  A    between atoms: _188  and  _189
REMARK   77  A    between atoms: _188  and  _191
REMARK   78  A    between atoms: _191  and  _192
REMARK   79  A    between atoms: _192  and  _193
REMARK   80  A    between atoms: _198  and  _200
REMARK   81  A    between atoms: _200  and  _201
REMARK   82  A    between atoms: _200  and  _203
REMARK   83  A    between atoms: _203  and  _204
REMARK   84  A    between atoms: _209  and  _210
REMARK   85  A    between atoms: _213  and  _214
REMARK   86  A    between atoms: _219  and  _221
REMARK   87  A    between atoms: _221  and  _222
REMARK   88  A    between atoms: _224  and  _226
REMARK   89  A    between atoms: _226  and  _227
REMARK   90  A    between atoms: _226  and  _229
REMARK   91  A    between atoms: _232  and  _234
REMARK   92  A    between atoms: _234  and  _235
REMARK   93  A    between atoms: _234  and  _237
REMARK   94  A    between atoms: _237  and  _238
REMARK   95  A    between atoms: _241  and  _243
REMARK   96  A    between atoms: _243  and  _244
REMARK   97  A    between atoms: _243  and  _246
REMARK   98  A    between atoms: _249  and  _251
REMARK   99  A    between atoms: _251  and  _252
REMARK  100  A    between atoms: _251  and  _254
REMARK  101  A    between atoms: _257  and  _259
REMARK  102  A    between atoms: _259  and  _260
REMARK  103  A    between atoms: _259  and  _262
REMARK  104  A    between atoms: _262  and  _263
REMARK  105  A    between atoms: _266  and  _268
REMARK  106  A    between atoms: _268  and  _269
REMARK  107  A    between atoms: _268  and  _271
REMARK  108  A    between atoms: _271  and  _272
REMARK  109  A    between atoms: _275  and  _277
REMARK  110  A    between atoms: _277  and  _278
REMARK  111  A    between atoms: _277  and  _280
REMARK  112  A    between atoms: _283  and  _285
REMARK  113  A    between atoms: _285  and  _286
REMARK  114  A    between atoms: _285  and  _288
REMARK  115  A    between atoms: _288  and  _289
REMARK  116  A    between atoms: _295  and  _297
REMARK  117  A    between atoms: _297  and  _298
REMARK  118  A    between atoms: _297  and  _300
REMARK  119  A    between atoms: _300  and  _301
REMARK  120  A    between atoms: _307  and  _309
REMARK  121  A    between atoms: _309  and  _310
REMARK  122  A    between atoms: _312  and  _314
REMARK  123  A    between atoms: _314  and  _315
REMARK  124  A    between atoms: _314  and  _317
REMARK  125  A    between atoms: _317  and  _318
REMARK  126  A    between atoms: _318  and  _319
REMARK  127  A    between atoms: _322  and  _324
REMARK  128  A    between atoms: _324  and  _325
REMARK  129  A    between atoms: _324  and  _327
REMARK  130  A    between atoms: _327  and  _328
REMARK  131  A    between atoms: _328  and  _329
REMARK  132  A    between atoms: _329  and  _330
REMARK  133  A    between atoms: _330  and  _331
REMARK  134  A    between atoms: _335  and  _337
REMARK  135  A    between atoms: _337  and  _338
REMARK  136  A    between atoms: _337  and  _340
REMARK  137  A    between atoms: _340  and  _341
REMARK  138  A    between atoms: _344  and  _346
REMARK  139  A    between atoms: _346  and  _347
REMARK  140  A    between atoms: _346  and  _349
REMARK  141  A    between atoms: _349  and  _350
REMARK  142  A    between atoms: _350  and  _351
REMARK  143  A    between atoms: _356  and  _358
REMARK  144  A    between atoms: _358  and  _359
REMARK  145  A    between atoms: _358  and  _361
REMARK  146  A    between atoms: _361  and  _362
REMARK  147  A    between atoms: _365  and  _367
REMARK  148  A    between atoms: _367  and  _368
REMARK  149  A    between atoms: _367  and  _370
REMARK  150  A    between atoms: _370  and  _371
REMARK  151  A    between atoms: _374  and  _376
REMARK  152  A    between atoms: _376  and  _377
REMARK  153  A    between atoms: _379  and  _381
REMARK  154  A    between atoms: _381  and  _382
REMARK  155  A    between atoms: _381  and  _384
REMARK  156  A    between atoms: _388  and  _389
REMARK  157  A    between atoms: _394  and  _396
REMARK  158  A    between atoms: _396  and  _397
REMARK  159  A    between atoms: _396  and  _399
REMARK  160  A    between atoms: _399  and  _400
REMARK  161  A    between atoms: _403  and  _405
REMARK  162  A    between atoms: _405  and  _406
REMARK  163  A    between atoms: _405  and  _408
REMARK  164  A    between atoms: _411  and  _413
REMARK  165  A    between atoms: _413  and  _414
REMARK  166  A    between atoms: _413  and  _416
REMARK  167  A    between atoms: _416  and  _417
REMARK  168  A    between atoms: _417  and  _418
REMARK  169  A    between atoms: _418  and  _419
REMARK  170  A    between atoms: _428  and  _430
REMARK  171  A    between atoms: _430  and  _431
REMARK  172  A    between atoms: _430  and  _433
REMARK  173  A    between atoms: _433  and  _434
REMARK  174  A    between atoms: _437  and  _439
REMARK  175  A    between atoms: _439  and  _440
REMARK  176  A    between atoms: _443  and  _445
REMARK  177  A    between atoms: _445  and  _446
REMARK  178  A    between atoms: _445  and  _448
REMARK  179  A    between atoms: _448  and  _449
REMARK  180  A    between atoms: _449  and  _450
REMARK  181  A    between atoms: _452  and  _454
REMARK  182  A    between atoms: _454  and  _455
REMARK  183  A    between atoms: _454  and  _457
REMARK  184  A    between atoms: _457  and  _458
REMARK  185  A    between atoms: _460  and  _462
REMARK  186  A    between atoms: _462  and  _463
REMARK  187  A    between atoms: _462  and  _465
REMARK  188  A    between atoms: _465  and  _466
REMARK  189  A    between atoms: _468  and  _470
REMARK  190  A    between atoms: _470  and  _471
REMARK  191  A    between atoms: _470  and  _473
REMARK  192  A    between atoms: _473  and  _474
REMARK  193  A    between atoms: _474  and  _475
REMARK  194  A    between atoms: _475  and  _476
REMARK  195  A    between atoms: _485  and  _487
REMARK  196  A    between atoms: _487  and  _488
REMARK  197  A    between atoms: _487  and  _490
REMARK  198  A    between atoms: _490  and  _491
REMARK  199  A    between atoms: _496  and  _498
REMARK  200  A    between atoms: _498  and  _499
REMARK  201  A    between atoms: _498  and  _501
REMARK  202  A    between atoms: _501  and  _502
REMARK  203  A    between atoms: _502  and  _503
REMARK  204  A    between atoms: _503  and  _504
REMARK  205  A    between atoms: _513  and  _515
REMARK  206  A    between atoms: _515  and  _516
REMARK  207  A    between atoms: _515  and  _518
REMARK  208  A    between atoms: _518  and  _519
REMARK  209  A    between atoms: _519  and  _520
REMARK  210  A    between atoms: _520  and  _521
REMARK  211  A    between atoms: _530  and  _532
REMARK  212  A    between atoms: _532  and  _533
REMARK  213  A    between atoms: _532  and  _535
REMARK  214  A    between atoms: _535  and  _536
REMARK  215  A    between atoms: _539  and  _541
REMARK  216  A    between atoms: _541  and  _542
REMARK  217  A    between atoms: _541  and  _544
REMARK  218  A    between atoms: _544  and  _545
REMARK  219  A    between atoms: _548  and  _550
REMARK  220  A    between atoms: _550  and  _551
REMARK  221  A    between atoms: _550  and  _553
REMARK  222  A    between atoms: _553  and  _554
REMARK                            x       y       z     vdW  Elec       q    Type
REMARK                         _______ _______ _______ _____ _____    ______ ____
ROOT
ATOM      1  O   HOH     1      21.953  12.026   1.965  0.00  0.00    +0.000 OA
ENDROOT
TORSDOF 0
REMARK  Name = ../refined-set-2016/3ivx/3ivx_pocket.pdb
REMARK  222 active torsions:
REMARK  status: ('A' for Active; 'I' for Inactive)
REMARK    1  A    between atoms: _1  and  _3
REMARK    2  A    between atoms: _3  and  _4
REMARK    3  A    between atoms: _3  and  _6
REMARK    4  A    between atoms: _6  and  _7
REMARK    5  A    between atoms: _10  and  _12
REMARK    6  A    between atoms: _12  and  _13
REMARK    7  A    between atoms: _12  and  _15
REMARK    8  A    between atoms: _19  and  _20
REMARK    9  A    between atoms: _25  and  _27
REMARK   10  A    between atoms: _27  and  _28
REMARK   11  A    between atoms: _27  and  _30
REMARK   12  A    between atoms: _30  and  _31
REMARK   13  A    between atoms: _34  and  _36
REMARK   14  A    between atoms: _36  and  _37
REMARK   15  A    between atoms: _36  and  _39
REMARK   16  A    between atoms: _39  and  _40
REMARK   17  A    between atoms: _40  and  _41
REMARK   18  A    between atoms: _43  and  _45
REMARK   19  A    between atoms: _45  and  _46
REMARK   20  A    between atoms: _48  and  _50
REMARK   21  A    between atoms: _50  and  _51
REMARK   22  A    between atoms: _54  and  _56
REMARK   23  A    between atoms: _56  and  _57
REMARK   24  A    between atoms: _56  and  _59
REMARK   25  A    between atoms: _59  and  _60
REMARK   26  A    between atoms: _63  and  _65
REMARK   27  A    between atoms: _65  and  _66
REMARK   28  A    between atoms: _65  and  _68
REMARK   29  A    between atoms: _68  and  _69
REMARK   30  A    between atoms: _74  and  _76
REMARK   31  A    between atoms: _76  and  _77
REMARK   32  A    between atoms: _76  and  _79
REMARK   33  A    between atoms: _79  and  _80
REMARK   34  A    between atoms: _80  and  _81
REMARK   35  A    between atoms: _84  and  _86
REMARK   36  A    between atoms: _86  and  _87
REMARK   37  A    between atoms: _89  and  _91
REMARK   38  A    between atoms: _91  and  _92
REMARK   39  A    between atoms: _91  and  _94
REMARK   40  A    between atoms: _94  and  _95
REMARK   41  A    between atoms: _100  and  _102
REMARK   42  A    between atoms: _102  and  _103
REMARK   43  A    between atoms: _102  and  _105
REMARK   44  A    between atoms: _105  and  _106
REMARK   45  A    between atoms: _109  and  _111
REMARK   46  A    between atoms: _111  and  _112
REMARK   47  A    between atoms: _115  and  _117
REMARK   48  A    between atoms: _117  and  _118
REMARK   49  A    between atoms: _117  and  _120
REMARK   50  A    between atoms: _120  and  _121
REMARK   51  A    between atoms: _124  and  _126
REMARK   52  A    between atoms: _126  and  _127
REMARK   53  A    between atoms: _126  and  _129
REMARK   54  A    between atoms: _132  and  _134
REMARK   55  A    between atoms: _134  and  _135
REMARK   56  A    between atoms: _138  and  _140
REMARK   57  A    between atoms: _140  and  _141
REMARK   58  A    between atoms: _140  and  _143
REMARK   59  A    between atoms: _143  and  _144
REMARK   60  A    between atoms: _146  and  _148
REMARK   61  A    between atoms: _148  and  _149
REMARK   62  A    between atoms: _148  and  _151
REMARK   63  A    between atoms: _151  and  _152
REMARK   64  A    between atoms: _155  and  _157
REMARK   65  A    between atoms: _157  and  _158
REMARK   66  A    between atoms: _157  and  _160
REMARK   67  A    between atoms: _160  and  _161
REMARK   68  A    between atoms: _167  and  _169
REMARK   69  A    between atoms: _169  and  _170
REMARK   70  A    between atoms: _169  and  _172
REMARK   71  A    between atoms: _175  and  _177
REMARK   72  A    between atoms: _177  and  _178
REMARK   73  A    between atoms: _177  and  _180
REMARK   74  A    between atoms: _180  and  _181
REMARK   75  A    between atoms: _186  and  _188
REMARK   76  A    between atoms: _188  and  _189
REMARK   77  A    between atoms: _188  and  _191
REMARK   78  A    between atoms: _191  and  _192
REMARK   79  A    between atoms: _192  and  _193
REMARK   80  A    between atoms: _198  and  _200
REMARK   81  A    between atoms: _200  and  _201
REMARK   82  A    between atoms: _200  and  _203
REMARK   83  A    between atoms: _203  and  _204
REMARK   84  A    between atoms: _209  and  _210
REMARK   85  A    between atoms: _213  and  _214
REMARK   86  A    between atoms: _219  and  _221
REMARK   87  A    between atoms: _221  and  _222
REMARK   88  A    between atoms: _224  and  _226
REMARK   89  A    between atoms: _226  and  _227
REMARK   90  A    between atoms: _226  and  _229
REMARK   91  A    between atoms: _232  and  _234
REMARK   92  A    between atoms: _234  and  _235
REMARK   93  A    between atoms: _234  and  _237
REMARK   94  A    between atoms: _237  and  _238
REMARK   95  A    between atoms: _241  and  _243
REMARK   96  A    between atoms: _243  and  _244
REMARK   97  A    between atoms: _243  and  _246
REMARK   98  A    between atoms: _249  and  _251
REMARK   99  A    between atoms: _251  and  _252
REMARK  100  A    between atoms: _251  and  _254
REMARK  101  A    between atoms: _257  and  _259
REMARK  102  A    between atoms: _259  and  _260
REMARK  103  A    between atoms: _259  and  _262
REMARK  104  A    between atoms: _262  and  _263
REMARK  105  A    between atoms: _266  and  _268
REMARK  106  A    between atoms: _268  and  _269
REMARK  107  A    between atoms: _268  and  _271
REMARK  108  A    between atoms: _271  and  _272
REMARK  109  A    between atoms: _275  and  _277
REMARK  110  A    between atoms: _277  and  _278
REMARK  111  A    between atoms: _277  and  _280
REMARK  112  A    between atoms: _283  and  _285
REMARK  113  A    between atoms: _285  and  _286
REMARK  114  A    between atoms: _285  and  _288
REMARK  115  A    between atoms: _288  and  _289
REMARK  116  A    between atoms: _295  and  _297
REMARK  117  A    between atoms: _297  and  _298
REMARK  118  A    between atoms: _297  and  _300
REMARK  119  A    between atoms: _300  and  _301
REMARK  120  A    between atoms: _307  and  _309
REMARK  121  A    between atoms: _309  and  _310
REMARK  122  A    between atoms: _312  and  _314
REMARK  123  A    between atoms: _314  and  _315
REMARK  124  A    between atoms: _314  and  _317
REMARK  125  A    between atoms: _317  and  _318
REMARK  126  A    between atoms: _318  and  _319
REMARK  127  A    between atoms: _322  and  _324
REMARK  128  A    between atoms: _324  and  _325
REMARK  129  A    between atoms: _324  and  _327
REMARK  130  A    between atoms: _327  and  _328
REMARK  131  A    between atoms: _328  and  _329
REMARK  132  A    between atoms: _329  and  _330
REMARK  133  A    between atoms: _330  and  _331
REMARK  134  A    between atoms: _335  and  _337
REMARK  135  A    between atoms: _337  and  _338
REMARK  136  A    between atoms: _337  and  _340
REMARK  137  A    between atoms: _340  and  _341
REMARK  138  A    between atoms: _344  and  _346
REMARK  139  A    between atoms: _346  and  _347
REMARK  140  A    between atoms: _346  and  _349
REMARK  141  A    between atoms: _349  and  _350
REMARK  142  A    between atoms: _350  and  _351
REMARK  143  A    between atoms: _356  and  _358
REMARK  144  A    between atoms: _358  and  _359
REMARK  145  A    between atoms: _358  and  _361
REMARK  146  A    between atoms: _361  and  _362
REMARK  147  A    between atoms: _365  and  _367
REMARK  148  A    between atoms: _367  and  _368
REMARK  149  A    between atoms: _367  and  _370
REMARK  150  A    between atoms: _370  and  _371
REMARK  151  A    between atoms: _374  and  _376
REMARK  152  A    between atoms: _376  and  _377
REMARK  153  A    between atoms: _379  and  _381
REMARK  154  A    between atoms: _381  and  _382
REMARK  155  A    between atoms: _381  and  _384
REMARK  156  A    between atoms: _388  and  _389
REMARK  157  A    between atoms: _394  and  _396
REMARK  158  A    between atoms: _396  and  _397
REMARK  159  A    between atoms: _396  and  _399
REMARK  160  A    between atoms: _399  and  _400
REMARK  161  A    between atoms: _403  and  _405
REMARK  162  A    between atoms: _405  and  _406
REMARK  163  A    between atoms: _405  and  _408
REMARK  164  A    between atoms: _411  and  _413
REMARK  165  A    between atoms: _413  and  _414
REMARK  166  A    between atoms: _413  and  _416
REMARK  167  A    between atoms: _416  and  _417
REMARK  168  A    between atoms: _417  and  _418
REMARK  169  A    between atoms: _418  and  _419
REMARK  170  A    between atoms: _428  and  _430
REMARK  171  A    between atoms: _430  and  _431
REMARK  172  A    between atoms: _430  and  _433
REMARK  173  A    between atoms: _433  and  _434
REMARK  174  A    between atoms: _437  and  _439
REMARK  175  A    between atoms: _439  and  _440
REMARK  176  A    between atoms: _443  and  _445
REMARK  177  A    between atoms: _445  and  _446
REMARK  178  A    between atoms: _445  and  _448
REMARK  179  A    between atoms: _448  and  _449
REMARK  180  A    between atoms: _449  and  _450
REMARK  181  A    between atoms: _452  and  _454
REMARK  182  A    between atoms: _454  and  _455
REMARK  183  A    between atoms: _454  and  _457
REMARK  184  A    between atoms: _457  and  _458
REMARK  185  A    between atoms: _460  and  _462
REMARK  186  A    between atoms: _462  and  _463
REMARK  187  A    between atoms: _462  and  _465
REMARK  188  A    between atoms: _465  and  _466
REMARK  189  A    between atoms: _468  and  _470
REMARK  190  A    between atoms: _470  and  _471
REMARK  191  A    between atoms: _470  and  _473
REMARK  192  A    between atoms: _473  and  _474
REMARK  193  A    between atoms: _474  and  _475
REMARK  194  A    between atoms: _475  and  _476
REMARK  195  A    between atoms: _485  and  _487
REMARK  196  A    between atoms: _487  and  _488
REMARK  197  A    between atoms: _487  and  _490
REMARK  198  A    between atoms: _490  and  _491
REMARK  199  A    between atoms: _496  and  _498
REMARK  200  A    between atoms: _498  and  _499
REMARK  201  A    between atoms: _498  and  _501
REMARK  202  A    between atoms: _501  and  _502
REMARK  203  A    between atoms: _502  and  _503
REMARK  204  A    between atoms: _503  and  _504
REMARK  205  A    between atoms: _513  and  _515
REMARK  206  A    between atoms: _515  and  _516
REMARK  207  A    between atoms: _515  and  _518
REMARK  208  A    between atoms: _518  and  _519
REMARK  209  A    between atoms: _519  and  _520
REMARK  210  A    between atoms: _520  and  _521
REMARK  211  A    between atoms: _530  and  _532
REMARK  212  A    between atoms: _532  and  _533
REMARK  213  A    between atoms: _532  and  _535
REMARK  214  A    between atoms: _535  and  _536
REMARK  215  A    between atoms: _539  and  _541
REMARK  216  A    between atoms: _541  and  _542
REMARK  217  A    between atoms: _541  and  _544
REMARK  218  A    between atoms: _544  and  _545
REMARK  219  A    between atoms: _548  and  _550
REMARK  220  A    between atoms: _550  and  _551
REMARK  221  A    between atoms: _550  and  _553
REMARK  222  A    between atoms: _553  and  _554
REMARK                            x       y       z     vdW  Elec       q    Type
REMARK                         _______ _______ _______ _____ _____    ______ ____
ROOT
ATOM      1  O   HOH     1      19.956  15.617  -6.839  0.00  0.00    +0.000 OA
ENDROOT
TORSDOF 0
REMARK  Name = ../refined-set-2016/3ivx/3ivx_pocket.pdb
REMARK  222 active torsions:
REMARK  status: ('A' for Active; 'I' for Inactive)
REMARK    1  A    between atoms: _1  and  _3
REMARK    2  A    between atoms: _3  and  _4
REMARK    3  A    between atoms: _3  and  _6
REMARK    4  A    between atoms: _6  and  _7
REMARK    5  A    between atoms: _10  and  _12
REMARK    6  A    between atoms: _12  and  _13
REMARK    7  A    between atoms: _12  and  _15
REMARK    8  A    between atoms: _19  and  _20
REMARK    9  A    between atoms: _25  and  _27
REMARK   10  A    between atoms: _27  and  _28
REMARK   11  A    between atoms: _27  and  _30
REMARK   12  A    between atoms: _30  and  _31
REMARK   13  A    between atoms: _34  and  _36
REMARK   14  A    between atoms: _36  and  _37
REMARK   15  A    between atoms: _36  and  _39
REMARK   16  A    between atoms: _39  and  _40
REMARK   17  A    between atoms: _40  and  _41
REMARK   18  A    between atoms: _43  and  _45
REMARK   19  A    between atoms: _45  and  _46
REMARK   20  A    between atoms: _48  and  _50
REMARK   21  A    between atoms: _50  and  _51
REMARK   22  A    between atoms: _54  and  _56
REMARK   23  A    between atoms: _56  and  _57
REMARK   24  A    between atoms: _56  and  _59
REMARK   25  A    between atoms: _59  and  _60
REMARK   26  A    between atoms: _63  and  _65
REMARK   27  A    between atoms: _65  and  _66
REMARK   28  A    between atoms: _65  and  _68
REMARK   29  A    between atoms: _68  and  _69
REMARK   30  A    between atoms: _74  and  _76
REMARK   31  A    between atoms: _76  and  _77
REMARK   32  A    between atoms: _76  and  _79
REMARK   33  A    between atoms: _79  and  _80
REMARK   34  A    between atoms: _80  and  _81
REMARK   35  A    between atoms: _84  and  _86
REMARK   36  A    between atoms: _86  and  _87
REMARK   37  A    between atoms: _89  and  _91
REMARK   38  A    between atoms: _91  and  _92
REMARK   39  A    between atoms: _91  and  _94
REMARK   40  A    between atoms: _94  and  _95
REMARK   41  A    between atoms: _100  and  _102
REMARK   42  A    between atoms: _102  and  _103
REMARK   43  A    between atoms: _102  and  _105
REMARK   44  A    between atoms: _105  and  _106
REMARK   45  A    between atoms: _109  and  _111
REMARK   46  A    between atoms: _111  and  _112
REMARK   47  A    between atoms: _115  and  _117
REMARK   48  A    between atoms: _117  and  _118
REMARK   49  A    between atoms: _117  and  _120
REMARK   50  A    between atoms: _120  and  _121
REMARK   51  A    between atoms: _124  and  _126
REMARK   52  A    between atoms: _126  and  _127
REMARK   53  A    between atoms: _126  and  _129
REMARK   54  A    between atoms: _132  and  _134
REMARK   55  A    between atoms: _134  and  _135
REMARK   56  A    between atoms: _138  and  _140
REMARK   57  A    between atoms: _140  and  _141
REMARK   58  A    between atoms: _140  and  _143
REMARK   59  A    between atoms: _143  and  _144
REMARK   60  A    between atoms: _146  and  _148
REMARK   61  A    between atoms: _148  and  _149
REMARK   62  A    between atoms: _148  and  _151
REMARK   63  A    between atoms: _151  and  _152
REMARK   64  A    between atoms: _155  and  _157
REMARK   65  A    between atoms: _157  and  _158
REMARK   66  A    between atoms: _157  and  _160
REMARK   67  A    between atoms: _160  and  _161
REMARK   68  A    between atoms: _167  and  _169
REMARK   69  A    between atoms: _169  and  _170
REMARK   70  A    between atoms: _169  and  _172
REMARK   71  A    between atoms: _175  and  _177
REMARK   72  A    between atoms: _177  and  _178
REMARK   73  A    between atoms: _177  and  _180
REMARK   74  A    between atoms: _180  and  _181
REMARK   75  A    between atoms: _186  and  _188
REMARK   76  A    between atoms: _188  and  _189
REMARK   77  A    between atoms: _188  and  _191
REMARK   78  A    between atoms: _191  and  _192
REMARK   79  A    between atoms: _192  and  _193
REMARK   80  A    between atoms: _198  and  _200
REMARK   81  A    between atoms: _200  and  _201
REMARK   82  A    between atoms: _200  and  _203
REMARK   83  A    between atoms: _203  and  _204
REMARK   84  A    between atoms: _209  and  _210
REMARK   85  A    between atoms: _213  and  _214
REMARK   86  A    between atoms: _219  and  _221
REMARK   87  A    between atoms: _221  and  _222
REMARK   88  A    between atoms: _224  and  _226
REMARK   89  A    between atoms: _226  and  _227
REMARK   90  A    between atoms: _226  and  _229
REMARK   91  A    between atoms: _232  and  _234
REMARK   92  A    between atoms: _234  and  _235
REMARK   93  A    between atoms: _234  and  _237
REMARK   94  A    between atoms: _237  and  _238
REMARK   95  A    between atoms: _241  and  _243
REMARK   96  A    between atoms: _243  and  _244
REMARK   97  A    between atoms: _243  and  _246
REMARK   98  A    between atoms: _249  and  _251
REMARK   99  A    between atoms: _251  and  _252
REMARK  100  A    between atoms: _251  and  _254
REMARK  101  A    between atoms: _257  and  _259
REMARK  102  A    between atoms: _259  and  _260
REMARK  103  A    between atoms: _259  and  _262
REMARK  104  A    between atoms: _262  and  _263
REMARK  105  A    between atoms: _266  and  _268
REMARK  106  A    between atoms: _268  and  _269
REMARK  107  A    between atoms: _268  and  _271
REMARK  108  A    between atoms: _271  and  _272
REMARK  109  A    between atoms: _275  and  _277
REMARK  110  A    between atoms: _277  and  _278
REMARK  111  A    between atoms: _277  and  _280
REMARK  112  A    between atoms: _283  and  _285
REMARK  113  A    between atoms: _285  and  _286
REMARK  114  A    between atoms: _285  and  _288
REMARK  115  A    between atoms: _288  and  _289
REMARK  116  A    between atoms: _295  and  _297
REMARK  117  A    between atoms: _297  and  _298
REMARK  118  A    between atoms: _297  and  _300
REMARK  119  A    between atoms: _300  and  _301
REMARK  120  A    between atoms: _307  and  _309
REMARK  121  A    between atoms: _309  and  _310
REMARK  122  A    between atoms: _312  and  _314
REMARK  123  A    between atoms: _314  and  _315
REMARK  124  A    between atoms: _314  and  _317
REMARK  125  A    between atoms: _317  and  _318
REMARK  126  A    between atoms: _318  and  _319
REMARK  127  A    between atoms: _322  and  _324
REMARK  128  A    between atoms: _324  and  _325
REMARK  129  A    between atoms: _324  and  _327
REMARK  130  A    between atoms: _327  and  _328
REMARK  131  A    between atoms: _328  and  _329
REMARK  132  A    between atoms: _329  and  _330
REMARK  133  A    between atoms: _330  and  _331
REMARK  134  A    between atoms: _335  and  _337
REMARK  135  A    between atoms: _337  and  _338
REMARK  136  A    between atoms: _337  and  _340
REMARK  137  A    between atoms: _340  and  _341
REMARK  138  A    between atoms: _344  and  _346
REMARK  139  A    between atoms: _346  and  _347
REMARK  140  A    between atoms: _346  and  _349
REMARK  141  A    between atoms: _349  and  _350
REMARK  142  A    between atoms: _350  and  _351
REMARK  143  A    between atoms: _356  and  _358
REMARK  144  A    between atoms: _358  and  _359
REMARK  145  A    between atoms: _358  and  _361
REMARK  146  A    between atoms: _361  and  _362
REMARK  147  A    between atoms: _365  and  _367
REMARK  148  A    between atoms: _367  and  _368
REMARK  149  A    between atoms: _367  and  _370
REMARK  150  A    between atoms: _370  and  _371
REMARK  151  A    between atoms: _374  and  _376
REMARK  152  A    between atoms: _376  and  _377
REMARK  153  A    between atoms: _379  and  _381
REMARK  154  A    between atoms: _381  and  _382
REMARK  155  A    between atoms: _381  and  _384
REMARK  156  A    between atoms: _388  and  _389
REMARK  157  A    between atoms: _394  and  _396
REMARK  158  A    between atoms: _396  and  _397
REMARK  159  A    between atoms: _396  and  _399
REMARK  160  A    between atoms: _399  and  _400
REMARK  161  A    between atoms: _403  and  _405
REMARK  162  A    between atoms: _405  and  _406
REMARK  163  A    between atoms: _405  and  _408
REMARK  164  A    between atoms: _411  and  _413
REMARK  165  A    between atoms: _413  and  _414
REMARK  166  A    between atoms: _413  and  _416
REMARK  167  A    between atoms: _416  and  _417
REMARK  168  A    between atoms: _417  and  _418
REMARK  169  A    between atoms: _418  and  _419
REMARK  170  A    between atoms: _428  and  _430
REMARK  171  A    between atoms: _430  and  _431
REMARK  172  A    between atoms: _430  and  _433
REMARK  173  A    between atoms: _433  and  _434
REMARK  174  A    between atoms: _437  and  _439
REMARK  175  A    between atoms: _439  and  _440
REMARK  176  A    between atoms: _443  and  _445
REMARK  177  A    between atoms: _445  and  _446
REMARK  178  A    between atoms: _445  and  _448
REMARK  179  A    between atoms: _448  and  _449
REMARK  180  A    between atoms: _449  and  _450
REMARK  181  A    between atoms: _452  and  _454
REMARK  182  A    between atoms: _454  and  _455
REMARK  183  A    between atoms: _454  and  _457
REMARK  184  A    between atoms: _457  and  _458
REMARK  185  A    between atoms: _460  and  _462
REMARK  186  A    between atoms: _462  and  _463
REMARK  187  A    between atoms: _462  and  _465
REMARK  188  A    between atoms: _465  and  _466
REMARK  189  A    between atoms: _468  and  _470
REMARK  190  A    between atoms: _470  and  _471
REMARK  191  A    between atoms: _470  and  _473
REMARK  192  A    between atoms: _473  and  _474
REMARK  193  A    between atoms: _474  and  _475
REMARK  194  A    between atoms: _475  and  _476
REMARK  195  A    between atoms: _485  and  _487
REMARK  196  A    between atoms: _487  and  _488
REMARK  197  A    between atoms: _487  and  _490
REMARK  198  A    between atoms: _490  and  _491
REMARK  199  A    between atoms: _496  and  _498
REMARK  200  A    between atoms: _498  and  _499
REMARK  201  A    between atoms: _498  and  _501
REMARK  202  A    between atoms: _501  and  _502
REMARK  203  A    between atoms: _502  and  _503
REMARK  204  A    between atoms: _503  and  _504
REMARK  205  A    between atoms: _513  and  _515
REMARK  206  A    between atoms: _515  and  _516
REMARK  207  A    between atoms: _515  and  _518
REMARK  208  A    between atoms: _518  and  _519
REMARK  209  A    between atoms: _519  and  _520
REMARK  210  A    between atoms: _520  and  _521
REMARK  211  A    between atoms: _530  and  _532
REMARK  212  A    between atoms: _532  and  _533
REMARK  213  A    between atoms: _532  and  _535
REMARK  214  A    between atoms: _535  and  _536
REMARK  215  A    between atoms: _539  and  _541
REMARK  216  A    between atoms: _541  and  _542
REMARK  217  A    between atoms: _541  and  _544
REMARK  218  A    between atoms: _544  and  _545
REMARK  219  A    between atoms: _548  and  _550
REMARK  220  A    between atoms: _550  and  _551
REMARK  221  A    between atoms: _550  and  _553
REMARK  222  A    between atoms: _553  and  _554
REMARK                            x       y       z     vdW  Elec       q    Type
REMARK                         _______ _______ _______ _____ _____    ______ ____
ROOT
ATOM      1  O   HOH     1      20.256   7.302   4.683  0.00  0.00    +0.000 OA
ENDROOT
TORSDOF 0
REMARK  Name = ../refined-set-2016/3ivx/3ivx_pocket.pdb
REMARK  222 active torsions:
REMARK  status: ('A' for Active; 'I' for Inactive)
REMARK    1  A    between atoms: _1  and  _3
REMARK    2  A    between atoms: _3  and  _4
REMARK    3  A    between atoms: _3  and  _6
REMARK    4  A    between atoms: _6  and  _7
REMARK    5  A    between atoms: _10  and  _12
REMARK    6  A    between atoms: _12  and  _13
REMARK    7  A    between atoms: _12  and  _15
REMARK    8  A    between atoms: _19  and  _20
REMARK    9  A    between atoms: _25  and  _27
REMARK   10  A    between atoms: _27  and  _28
REMARK   11  A    between atoms: _27  and  _30
REMARK   12  A    between atoms: _30  and  _31
REMARK   13  A    between atoms: _34  and  _36
REMARK   14  A    between atoms: _36  and  _37
REMARK   15  A    between atoms: _36  and  _39
REMARK   16  A    between atoms: _39  and  _40
REMARK   17  A    between atoms: _40  and  _41
REMARK   18  A    between atoms: _43  and  _45
REMARK   19  A    between atoms: _45  and  _46
REMARK   20  A    between atoms: _48  and  _50
REMARK   21  A    between atoms: _50  and  _51
REMARK   22  A    between atoms: _54  and  _56
REMARK   23  A    between atoms: _56  and  _57
REMARK   24  A    between atoms: _56  and  _59
REMARK   25  A    between atoms: _59  and  _60
REMARK   26  A    between atoms: _63  and  _65
REMARK   27  A    between atoms: _65  and  _66
REMARK   28  A    between atoms: _65  and  _68
REMARK   29  A    between atoms: _68  and  _69
REMARK   30  A    between atoms: _74  and  _76
REMARK   31  A    between atoms: _76  and  _77
REMARK   32  A    between atoms: _76  and  _79
REMARK   33  A    between atoms: _79  and  _80
REMARK   34  A    between atoms: _80  and  _81
REMARK   35  A    between atoms: _84  and  _86
REMARK   36  A    between atoms: _86  and  _87
REMARK   37  A    between atoms: _89  and  _91
REMARK   38  A    between atoms: _91  and  _92
REMARK   39  A    between atoms: _91  and  _94
REMARK   40  A    between atoms: _94  and  _95
REMARK   41  A    between atoms: _100  and  _102
REMARK   42  A    between atoms: _102  and  _103
REMARK   43  A    between atoms: _102  and  _105
REMARK   44  A    between atoms: _105  and  _106
REMARK   45  A    between atoms: _109  and  _111
REMARK   46  A    between atoms: _111  and  _112
REMARK   47  A    between atoms: _115  and  _117
REMARK   48  A    between atoms: _117  and  _118
REMARK   49  A    between atoms: _117  and  _120
REMARK   50  A    between atoms: _120  and  _121
REMARK   51  A    between atoms: _124  and  _126
REMARK   52  A    between atoms: _126  and  _127
REMARK   53  A    between atoms: _126  and  _129
REMARK   54  A    between atoms: _132  and  _134
REMARK   55  A    between atoms: _134  and  _135
REMARK   56  A    between atoms: _138  and  _140
REMARK   57  A    between atoms: _140  and  _141
REMARK   58  A    between atoms: _140  and  _143
REMARK   59  A    between atoms: _143  and  _144
REMARK   60  A    between atoms: _146  and  _148
REMARK   61  A    between atoms: _148  and  _149
REMARK   62  A    between atoms: _148  and  _151
REMARK   63  A    between atoms: _151  and  _152
REMARK   64  A    between atoms: _155  and  _157
REMARK   65  A    between atoms: _157  and  _158
REMARK   66  A    between atoms: _157  and  _160
REMARK   67  A    between atoms: _160  and  _161
REMARK   68  A    between atoms: _167  and  _169
REMARK   69  A    between atoms: _169  and  _170
REMARK   70  A    between atoms: _169  and  _172
REMARK   71  A    between atoms: _175  and  _177
REMARK   72  A    between atoms: _177  and  _178
REMARK   73  A    between atoms: _177  and  _180
REMARK   74  A    between atoms: _180  and  _181
REMARK   75  A    between atoms: _186  and  _188
REMARK   76  A    between atoms: _188  and  _189
REMARK   77  A    between atoms: _188  and  _191
REMARK   78  A    between atoms: _191  and  _192
REMARK   79  A    between atoms: _192  and  _193
REMARK   80  A    between atoms: _198  and  _200
REMARK   81  A    between atoms: _200  and  _201
REMARK   82  A    between atoms: _200  and  _203
REMARK   83  A    between atoms: _203  and  _204
REMARK   84  A    between atoms: _209  and  _210
REMARK   85  A    between atoms: _213  and  _214
REMARK   86  A    between atoms: _219  and  _221
REMARK   87  A    between atoms: _221  and  _222
REMARK   88  A    between atoms: _224  and  _226
REMARK   89  A    between atoms: _226  and  _227
REMARK   90  A    between atoms: _226  and  _229
REMARK   91  A    between atoms: _232  and  _234
REMARK   92  A    between atoms: _234  and  _235
REMARK   93  A    between atoms: _234  and  _237
REMARK   94  A    between atoms: _237  and  _238
REMARK   95  A    between atoms: _241  and  _243
REMARK   96  A    between atoms: _243  and  _244
REMARK   97  A    between atoms: _243  and  _246
REMARK   98  A    between atoms: _249  and  _251
REMARK   99  A    between atoms: _251  and  _252
REMARK  100  A    between atoms: _251  and  _254
REMARK  101  A    between atoms: _257  and  _259
REMARK  102  A    between atoms: _259  and  _260
REMARK  103  A    between atoms: _259  and  _262
REMARK  104  A    between atoms: _262  and  _263
REMARK  105  A    between atoms: _266  and  _268
REMARK  106  A    between atoms: _268  and  _269
REMARK  107  A    between atoms: _268  and  _271
REMARK  108  A    between atoms: _271  and  _272
REMARK  109  A    between atoms: _275  and  _277
REMARK  110  A    between atoms: _277  and  _278
REMARK  111  A    between atoms: _277  and  _280
REMARK  112  A    between atoms: _283  and  _285
REMARK  113  A    between atoms: _285  and  _286
REMARK  114  A    between atoms: _285  and  _288
REMARK  115  A    between atoms: _288  and  _289
REMARK  116  A    between atoms: _295  and  _297
REMARK  117  A    between atoms: _297  and  _298
REMARK  118  A    between atoms: _297  and  _300
REMARK  119  A    between atoms: _300  and  _301
REMARK  120  A    between atoms: _307  and  _309
REMARK  121  A    between atoms: _309  and  _310
REMARK  122  A    between atoms: _312  and  _314
REMARK  123  A    between atoms: _314  and  _315
REMARK  124  A    between atoms: _314  and  _317
REMARK  125  A    between atoms: _317  and  _318
REMARK  126  A    between atoms: _318  and  _319
REMARK  127  A    between atoms: _322  and  _324
REMARK  128  A    between atoms: _324  and  _325
REMARK  129  A    between atoms: _324  and  _327
REMARK  130  A    between atoms: _327  and  _328
REMARK  131  A    between atoms: _328  and  _329
REMARK  132  A    between atoms: _329  and  _330
REMARK  133  A    between atoms: _330  and  _331
REMARK  134  A    between atoms: _335  and  _337
REMARK  135  A    between atoms: _337  and  _338
REMARK  136  A    between atoms: _337  and  _340
REMARK  137  A    between atoms: _340  and  _341
REMARK  138  A    between atoms: _344  and  _346
REMARK  139  A    between atoms: _346  and  _347
REMARK  140  A    between atoms: _346  and  _349
REMARK  141  A    between atoms: _349  and  _350
REMARK  142  A    between atoms: _350  and  _351
REMARK  143  A    between atoms: _356  and  _358
REMARK  144  A    between atoms: _358  and  _359
REMARK  145  A    between atoms: _358  and  _361
REMARK  146  A    between atoms: _361  and  _362
REMARK  147  A    between atoms: _365  and  _367
REMARK  148  A    between atoms: _367  and  _368
REMARK  149  A    between atoms: _367  and  _370
REMARK  150  A    between atoms: _370  and  _371
REMARK  151  A    between atoms: _374  and  _376
REMARK  152  A    between atoms: _376  and  _377
REMARK  153  A    between atoms: _379  and  _381
REMARK  154  A    between atoms: _381  and  _382
REMARK  155  A    between atoms: _381  and  _384
REMARK  156  A    between atoms: _388  and  _389
REMARK  157  A    between atoms: _394  and  _396
REMARK  158  A    between atoms: _396  and  _397
REMARK  159  A    between atoms: _396  and  _399
REMARK  160  A    between atoms: _399  and  _400
REMARK  161  A    between atoms: _403  and  _405
REMARK  162  A    between atoms: _405  and  _406
REMARK  163  A    between atoms: _405  and  _408
REMARK  164  A    between atoms: _411  and  _413
REMARK  165  A    between atoms: _413  and  _414
REMARK  166  A    between atoms: _413  and  _416
REMARK  167  A    between atoms: _416  and  _417
REMARK  168  A    between atoms: _417  and  _418
REMARK  169  A    between atoms: _418  and  _419
REMARK  170  A    between atoms: _428  and  _430
REMARK  171  A    between atoms: _430  and  _431
REMARK  172  A    between atoms: _430  and  _433
REMARK  173  A    between atoms: _433  and  _434
REMARK  174  A    between atoms: _437  and  _439
REMARK  175  A    between atoms: _439  and  _440
REMARK  176  A    between atoms: _443  and  _445
REMARK  177  A    between atoms: _445  and  _446
REMARK  178  A    between atoms: _445  and  _448
REMARK  179  A    between atoms: _448  and  _449
REMARK  180  A    between atoms: _449  and  _450
REMARK  181  A    between atoms: _452  and  _454
REMARK  182  A    between atoms: _454  and  _455
REMARK  183  A    between atoms: _454  and  _457
REMARK  184  A    between atoms: _457  and  _458
REMARK  185  A    between atoms: _460  and  _462
REMARK  186  A    between atoms: _462  and  _463
REMARK  187  A    between atoms: _462  and  _465
REMARK  188  A    between atoms: _465  and  _466
REMARK  189  A    between atoms: _468  and  _470
REMARK  190  A    between atoms: _470  and  _471
REMARK  191  A    between atoms: _470  and  _473
REMARK  192  A    between atoms: _473  and  _474
REMARK  193  A    between atoms: _474  and  _475
REMARK  194  A    between atoms: _475  and  _476
REMARK  195  A    between atoms: _485  and  _487
REMARK  196  A    between atoms: _487  and  _488
REMARK  197  A    between atoms: _487  and  _490
REMARK  198  A    between atoms: _490  and  _491
REMARK  199  A    between atoms: _496  and  _498
REMARK  200  A    between atoms: _498  and  _499
REMARK  201  A    between atoms: _498  and  _501
REMARK  202  A    between atoms: _501  and  _502
REMARK  203  A    between atoms: _502  and  _503
REMARK  204  A    between atoms: _503  and  _504
REMARK  205  A    between atoms: _513  and  _515
REMARK  206  A    between atoms: _515  and  _516
REMARK  207  A    between atoms: _515  and  _518
REMARK  208  A    between atoms: _518  and  _519
REMARK  209  A    between atoms: _519  and  _520
REMARK  210  A    between atoms: _520  and  _521
REMARK  211  A    between atoms: _530  and  _532
REMARK  212  A    between atoms: _532  and  _533
REMARK  213  A    between atoms: _532  and  _535
REMARK  214  A    between atoms: _535  and  _536
REMARK  215  A    between atoms: _539  and  _541
REMARK  216  A    between atoms: _541  and  _542
REMARK  217  A    between atoms: _541  and  _544
REMARK  218  A    between atoms: _544  and  _545
REMARK  219  A    between atoms: _548  and  _550
REMARK  220  A    between atoms: _550  and  _551
REMARK  221  A    between atoms: _550  and  _553
REMARK  222  A    between atoms: _553  and  _554
REMARK                            x       y       z     vdW  Elec       q    Type
REMARK                         _______ _______ _______ _____ _____    ______ ____
ROOT
ATOM      1  O   HOH     1      15.526   9.809   9.778  0.00  0.00    +0.000 OA
ENDROOT
TORSDOF 0
REMARK  Name = ../refined-set-2016/3ivx/3ivx_pocket.pdb
REMARK  222 active torsions:
REMARK  status: ('A' for Active; 'I' for Inactive)
REMARK    1  A    between atoms: _1  and  _3
REMARK    2  A    between atoms: _3  and  _4
REMARK    3  A    between atoms: _3  and  _6
REMARK    4  A    between atoms: _6  and  _7
REMARK    5  A    between atoms: _10  and  _12
REMARK    6  A    between atoms: _12  and  _13
REMARK    7  A    between atoms: _12  and  _15
REMARK    8  A    between atoms: _19  and  _20
REMARK    9  A    between atoms: _25  and  _27
REMARK   10  A    between atoms: _27  and  _28
REMARK   11  A    between atoms: _27  and  _30
REMARK   12  A    between atoms: _30  and  _31
REMARK   13  A    between atoms: _34  and  _36
REMARK   14  A    between atoms: _36  and  _37
REMARK   15  A    between atoms: _36  and  _39
REMARK   16  A    between atoms: _39  and  _40
REMARK   17  A    between atoms: _40  and  _41
REMARK   18  A    between atoms: _43  and  _45
REMARK   19  A    between atoms: _45  and  _46
REMARK   20  A    between atoms: _48  and  _50
REMARK   21  A    between atoms: _50  and  _51
REMARK   22  A    between atoms: _54  and  _56
REMARK   23  A    between atoms: _56  and  _57
REMARK   24  A    between atoms: _56  and  _59
REMARK   25  A    between atoms: _59  and  _60
REMARK   26  A    between atoms: _63  and  _65
REMARK   27  A    between atoms: _65  and  _66
REMARK   28  A    between atoms: _65  and  _68
REMARK   29  A    between atoms: _68  and  _69
REMARK   30  A    between atoms: _74  and  _76
REMARK   31  A    between atoms: _76  and  _77
REMARK   32  A    between atoms: _76  and  _79
REMARK   33  A    between atoms: _79  and  _80
REMARK   34  A    between atoms: _80  and  _81
REMARK   35  A    between atoms: _84  and  _86
REMARK   36  A    between atoms: _86  and  _87
REMARK   37  A    between atoms: _89  and  _91
REMARK   38  A    between atoms: _91  and  _92
REMARK   39  A    between atoms: _91  and  _94
REMARK   40  A    between atoms: _94  and  _95
REMARK   41  A    between atoms: _100  and  _102
REMARK   42  A    between atoms: _102  and  _103
REMARK   43  A    between atoms: _102  and  _105
REMARK   44  A    between atoms: _105  and  _106
REMARK   45  A    between atoms: _109  and  _111
REMARK   46  A    between atoms: _111  and  _112
REMARK   47  A    between atoms: _115  and  _117
REMARK   48  A    between atoms: _117  and  _118
REMARK   49  A    between atoms: _117  and  _120
REMARK   50  A    between atoms: _120  and  _121
REMARK   51  A    between atoms: _124  and  _126
REMARK   52  A    between atoms: _126  and  _127
REMARK   53  A    between atoms: _126  and  _129
REMARK   54  A    between atoms: _132  and  _134
REMARK   55  A    between atoms: _134  and  _135
REMARK   56  A    between atoms: _138  and  _140
REMARK   57  A    between atoms: _140  and  _141
REMARK   58  A    between atoms: _140  and  _143
REMARK   59  A    between atoms: _143  and  _144
REMARK   60  A    between atoms: _146  and  _148
REMARK   61  A    between atoms: _148  and  _149
REMARK   62  A    between atoms: _148  and  _151
REMARK   63  A    between atoms: _151  and  _152
REMARK   64  A    between atoms: _155  and  _157
REMARK   65  A    between atoms: _157  and  _158
REMARK   66  A    between atoms: _157  and  _160
REMARK   67  A    between atoms: _160  and  _161
REMARK   68  A    between atoms: _167  and  _169
REMARK   69  A    between atoms: _169  and  _170
REMARK   70  A    between atoms: _169  and  _172
REMARK   71  A    between atoms: _175  and  _177
REMARK   72  A    between atoms: _177  and  _178
REMARK   73  A    between atoms: _177  and  _180
REMARK   74  A    between atoms: _180  and  _181
REMARK   75  A    between atoms: _186  and  _188
REMARK   76  A    between atoms: _188  and  _189
REMARK   77  A    between atoms: _188  and  _191
REMARK   78  A    between atoms: _191  and  _192
REMARK   79  A    between atoms: _192  and  _193
REMARK   80  A    between atoms: _198  and  _200
REMARK   81  A    between atoms: _200  and  _201
REMARK   82  A    between atoms: _200  and  _203
REMARK   83  A    between atoms: _203  and  _204
REMARK   84  A    between atoms: _209  and  _210
REMARK   85  A    between atoms: _213  and  _214
REMARK   86  A    between atoms: _219  and  _221
REMARK   87  A    between atoms: _221  and  _222
REMARK   88  A    between atoms: _224  and  _226
REMARK   89  A    between atoms: _226  and  _227
REMARK   90  A    between atoms: _226  and  _229
REMARK   91  A    between atoms: _232  and  _234
REMARK   92  A    between atoms: _234  and  _235
REMARK   93  A    between atoms: _234  and  _237
REMARK   94  A    between atoms: _237  and  _238
REMARK   95  A    between atoms: _241  and  _243
REMARK   96  A    between atoms: _243  and  _244
REMARK   97  A    between atoms: _243  and  _246
REMARK   98  A    between atoms: _249  and  _251
REMARK   99  A    between atoms: _251  and  _252
REMARK  100  A    between atoms: _251  and  _254
REMARK  101  A    between atoms: _257  and  _259
REMARK  102  A    between atoms: _259  and  _260
REMARK  103  A    between atoms: _259  and  _262
REMARK  104  A    between atoms: _262  and  _263
REMARK  105  A    between atoms: _266  and  _268
REMARK  106  A    between atoms: _268  and  _269
REMARK  107  A    between atoms: _268  and  _271
REMARK  108  A    between atoms: _271  and  _272
REMARK  109  A    between atoms: _275  and  _277
REMARK  110  A    between atoms: _277  and  _278
REMARK  111  A    between atoms: _277  and  _280
REMARK  112  A    between atoms: _283  and  _285
REMARK  113  A    between atoms: _285  and  _286
REMARK  114  A    between atoms: _285  and  _288
REMARK  115  A    between atoms: _288  and  _289
REMARK  116  A    between atoms: _295  and  _297
REMARK  117  A    between atoms: _297  and  _298
REMARK  118  A    between atoms: _297  and  _300
REMARK  119  A    between atoms: _300  and  _301
REMARK  120  A    between atoms: _307  and  _309
REMARK  121  A    between atoms: _309  and  _310
REMARK  122  A    between atoms: _312  and  _314
REMARK  123  A    between atoms: _314  and  _315
REMARK  124  A    between atoms: _314  and  _317
REMARK  125  A    between atoms: _317  and  _318
REMARK  126  A    between atoms: _318  and  _319
REMARK  127  A    between atoms: _322  and  _324
REMARK  128  A    between atoms: _324  and  _325
REMARK  129  A    between atoms: _324  and  _327
REMARK  130  A    between atoms: _327  and  _328
REMARK  131  A    between atoms: _328  and  _329
REMARK  132  A    between atoms: _329  and  _330
REMARK  133  A    between atoms: _330  and  _331
REMARK  134  A    between atoms: _335  and  _337
REMARK  135  A    between atoms: _337  and  _338
REMARK  136  A    between atoms: _337  and  _340
REMARK  137  A    between atoms: _340  and  _341
REMARK  138  A    between atoms: _344  and  _346
REMARK  139  A    between atoms: _346  and  _347
REMARK  140  A    between atoms: _346  and  _349
REMARK  141  A    between atoms: _349  and  _350
REMARK  142  A    between atoms: _350  and  _351
REMARK  143  A    between atoms: _356  and  _358
REMARK  144  A    between atoms: _358  and  _359
REMARK  145  A    between atoms: _358  and  _361
REMARK  146  A    between atoms: _361  and  _362
REMARK  147  A    between atoms: _365  and  _367
REMARK  148  A    between atoms: _367  and  _368
REMARK  149  A    between atoms: _367  and  _370
REMARK  150  A    between atoms: _370  and  _371
REMARK  151  A    between atoms: _374  and  _376
REMARK  152  A    between atoms: _376  and  _377
REMARK  153  A    between atoms: _379  and  _381
REMARK  154  A    between atoms: _381  and  _382
REMARK  155  A    between atoms: _381  and  _384
REMARK  156  A    between atoms: _388  and  _389
REMARK  157  A    between atoms: _394  and  _396
REMARK  158  A    between atoms: _396  and  _397
REMARK  159  A    between atoms: _396  and  _399
REMARK  160  A    between atoms: _399  and  _400
REMARK  161  A    between atoms: _403  and  _405
REMARK  162  A    between atoms: _405  and  _406
REMARK  163  A    between atoms: _405  and  _408
REMARK  164  A    between atoms: _411  and  _413
REMARK  165  A    between atoms: _413  and  _414
REMARK  166  A    between atoms: _413  and  _416
REMARK  167  A    between atoms: _416  and  _417
REMARK  168  A    between atoms: _417  and  _418
REMARK  169  A    between atoms: _418  and  _419
REMARK  170  A    between atoms: _428  and  _430
REMARK  171  A    between atoms: _430  and  _431
REMARK  172  A    between atoms: _430  and  _433
REMARK  173  A    between atoms: _433  and  _434
REMARK  174  A    between atoms: _437  and  _439
REMARK  175  A    between atoms: _439  and  _440
REMARK  176  A    between atoms: _443  and  _445
REMARK  177  A    between atoms: _445  and  _446
REMARK  178  A    between atoms: _445  and  _448
REMARK  179  A    between atoms: _448  and  _449
REMARK  180  A    between atoms: _449  and  _450
REMARK  181  A    between atoms: _452  and  _454
REMARK  182  A    between atoms: _454  and  _455
REMARK  183  A    between atoms: _454  and  _457
REMARK  184  A    between atoms: _457  and  _458
REMARK  185  A    between atoms: _460  and  _462
REMARK  186  A    between atoms: _462  and  _463
REMARK  187  A    between atoms: _462  and  _465
REMARK  188  A    between atoms: _465  and  _466
REMARK  189  A    between atoms: _468  and  _470
REMARK  190  A    between atoms: _470  and  _471
REMARK  191  A    between atoms: _470  and  _473
REMARK  192  A    between atoms: _473  and  _474
REMARK  193  A    between atoms: _474  and  _475
REMARK  194  A    between atoms: _475  and  _476
REMARK  195  A    between atoms: _485  and  _487
REMARK  196  A    between atoms: _487  and  _488
REMARK  197  A    between atoms: _487  and  _490
REMARK  198  A    between atoms: _490  and  _491
REMARK  199  A    between atoms: _496  and  _498
REMARK  200  A    between atoms: _498  and  _499
REMARK  201  A    between atoms: _498  and  _501
REMARK  202  A    between atoms: _501  and  _502
REMARK  203  A    between atoms: _502  and  _503
REMARK  204  A    between atoms: _503  and  _504
REMARK  205  A    between atoms: _513  and  _515
REMARK  206  A    between atoms: _515  and  _516
REMARK  207  A    between atoms: _515  and  _518
REMARK  208  A    between atoms: _518  and  _519
REMARK  209  A    between atoms: _519  and  _520
REMARK  210  A    between atoms: _520  and  _521
REMARK  211  A    between atoms: _530  and  _532
REMARK  212  A    between atoms: _532  and  _533
REMARK  213  A    between atoms: _532  and  _535
REMARK  214  A    between atoms: _535  and  _536
REMARK  215  A    between atoms: _539  and  _541
REMARK  216  A    between atoms: _541  and  _542
REMARK  217  A    between atoms: _541  and  _544
REMARK  218  A    between atoms: _544  and  _545
REMARK  219  A    between atoms: _548  and  _550
REMARK  220  A    between atoms: _550  and  _551
REMARK  221  A    between atoms: _550  and  _553
REMARK  222  A    between atoms: _553  and  _554
REMARK                            x       y       z     vdW  Elec       q    Type
REMARK                         _______ _______ _______ _____ _____    ______ ____
ROOT
ATOM      1  O   HOH     1      16.982   7.864   7.151  0.00  0.00    +0.000 OA
ENDROOT
TORSDOF 0
REMARK  Name = ../refined-set-2016/3ivx/3ivx_pocket.pdb
REMARK  222 active torsions:
REMARK  status: ('A' for Active; 'I' for Inactive)
REMARK    1  A    between atoms: _1  and  _3
REMARK    2  A    between atoms: _3  and  _4
REMARK    3  A    between atoms: _3  and  _6
REMARK    4  A    between atoms: _6  and  _7
REMARK    5  A    between atoms: _10  and  _12
REMARK    6  A    between atoms: _12  and  _13
REMARK    7  A    between atoms: _12  and  _15
REMARK    8  A    between atoms: _19  and  _20
REMARK    9  A    between atoms: _25  and  _27
REMARK   10  A    between atoms: _27  and  _28
REMARK   11  A    between atoms: _27  and  _30
REMARK   12  A    between atoms: _30  and  _31
REMARK   13  A    between atoms: _34  and  _36
REMARK   14  A    between atoms: _36  and  _37
REMARK   15  A    between atoms: _36  and  _39
REMARK   16  A    between atoms: _39  and  _40
REMARK   17  A    between atoms: _40  and  _41
REMARK   18  A    between atoms: _43  and  _45
REMARK   19  A    between atoms: _45  and  _46
REMARK   20  A    between atoms: _48  and  _50
REMARK   21  A    between atoms: _50  and  _51
REMARK   22  A    between atoms: _54  and  _56
REMARK   23  A    between atoms: _56  and  _57
REMARK   24  A    between atoms: _56  and  _59
REMARK   25  A    between atoms: _59  and  _60
REMARK   26  A    between atoms: _63  and  _65
REMARK   27  A    between atoms: _65  and  _66
REMARK   28  A    between atoms: _65  and  _68
REMARK   29  A    between atoms: _68  and  _69
REMARK   30  A    between atoms: _74  and  _76
REMARK   31  A    between atoms: _76  and  _77
REMARK   32  A    between atoms: _76  and  _79
REMARK   33  A    between atoms: _79  and  _80
REMARK   34  A    between atoms: _80  and  _81
REMARK   35  A    between atoms: _84  and  _86
REMARK   36  A    between atoms: _86  and  _87
REMARK   37  A    between atoms: _89  and  _91
REMARK   38  A    between atoms: _91  and  _92
REMARK   39  A    between atoms: _91  and  _94
REMARK   40  A    between atoms: _94  and  _95
REMARK   41  A    between atoms: _100  and  _102
REMARK   42  A    between atoms: _102  and  _103
REMARK   43  A    between atoms: _102  and  _105
REMARK   44  A    between atoms: _105  and  _106
REMARK   45  A    between atoms: _109  and  _111
REMARK   46  A    between atoms: _111  and  _112
REMARK   47  A    between atoms: _115  and  _117
REMARK   48  A    between atoms: _117  and  _118
REMARK   49  A    between atoms: _117  and  _120
REMARK   50  A    between atoms: _120  and  _121
REMARK   51  A    between atoms: _124  and  _126
REMARK   52  A    between atoms: _126  and  _127
REMARK   53  A    between atoms: _126  and  _129
REMARK   54  A    between atoms: _132  and  _134
REMARK   55  A    between atoms: _134  and  _135
REMARK   56  A    between atoms: _138  and  _140
REMARK   57  A    between atoms: _140  and  _141
REMARK   58  A    between atoms: _140  and  _143
REMARK   59  A    between atoms: _143  and  _144
REMARK   60  A    between atoms: _146  and  _148
REMARK   61  A    between atoms: _148  and  _149
REMARK   62  A    between atoms: _148  and  _151
REMARK   63  A    between atoms: _151  and  _152
REMARK   64  A    between atoms: _155  and  _157
REMARK   65  A    between atoms: _157  and  _158
REMARK   66  A    between atoms: _157  and  _160
REMARK   67  A    between atoms: _160  and  _161
REMARK   68  A    between atoms: _167  and  _169
REMARK   69  A    between atoms: _169  and  _170
REMARK   70  A    between atoms: _169  and  _172
REMARK   71  A    between atoms: _175  and  _177
REMARK   72  A    between atoms: _177  and  _178
REMARK   73  A    between atoms: _177  and  _180
REMARK   74  A    between atoms: _180  and  _181
REMARK   75  A    between atoms: _186  and  _188
REMARK   76  A    between atoms: _188  and  _189
REMARK   77  A    between atoms: _188  and  _191
REMARK   78  A    between atoms: _191  and  _192
REMARK   79  A    between atoms: _192  and  _193
REMARK   80  A    between atoms: _198  and  _200
REMARK   81  A    between atoms: _200  and  _201
REMARK   82  A    between atoms: _200  and  _203
REMARK   83  A    between atoms: _203  and  _204
REMARK   84  A    between atoms: _209  and  _210
REMARK   85  A    between atoms: _213  and  _214
REMARK   86  A    between atoms: _219  and  _221
REMARK   87  A    between atoms: _221  and  _222
REMARK   88  A    between atoms: _224  and  _226
REMARK   89  A    between atoms: _226  and  _227
REMARK   90  A    between atoms: _226  and  _229
REMARK   91  A    between atoms: _232  and  _234
REMARK   92  A    between atoms: _234  and  _235
REMARK   93  A    between atoms: _234  and  _237
REMARK   94  A    between atoms: _237  and  _238
REMARK   95  A    between atoms: _241  and  _243
REMARK   96  A    between atoms: _243  and  _244
REMARK   97  A    between atoms: _243  and  _246
REMARK   98  A    between atoms: _249  and  _251
REMARK   99  A    between atoms: _251  and  _252
REMARK  100  A    between atoms: _251  and  _254
REMARK  101  A    between atoms: _257  and  _259
REMARK  102  A    between atoms: _259  and  _260
REMARK  103  A    between atoms: _259  and  _262
REMARK  104  A    between atoms: _262  and  _263
REMARK  105  A    between atoms: _266  and  _268
REMARK  106  A    between atoms: _268  and  _269
REMARK  107  A    between atoms: _268  and  _271
REMARK  108  A    between atoms: _271  and  _272
REMARK  109  A    between atoms: _275  and  _277
REMARK  110  A    between atoms: _277  and  _278
REMARK  111  A    between atoms: _277  and  _280
REMARK  112  A    between atoms: _283  and  _285
REMARK  113  A    between atoms: _285  and  _286
REMARK  114  A    between atoms: _285  and  _288
REMARK  115  A    between atoms: _288  and  _289
REMARK  116  A    between atoms: _295  and  _297
REMARK  117  A    between atoms: _297  and  _298
REMARK  118  A    between atoms: _297  and  _300
REMARK  119  A    between atoms: _300  and  _301
REMARK  120  A    between atoms: _307  and  _309
REMARK  121  A    between atoms: _309  and  _310
REMARK  122  A    between atoms: _312  and  _314
REMARK  123  A    between atoms: _314  and  _315
REMARK  124  A    between atoms: _314  and  _317
REMARK  125  A    between atoms: _317  and  _318
REMARK  126  A    between atoms: _318  and  _319
REMARK  127  A    between atoms: _322  and  _324
REMARK  128  A    between atoms: _324  and  _325
REMARK  129  A    between atoms: _324  and  _327
REMARK  130  A    between atoms: _327  and  _328
REMARK  131  A    between atoms: _328  and  _329
REMARK  132  A    between atoms: _329  and  _330
REMARK  133  A    between atoms: _330  and  _331
REMARK  134  A    between atoms: _335  and  _337
REMARK  135  A    between atoms: _337  and  _338
REMARK  136  A    between atoms: _337  and  _340
REMARK  137  A    between atoms: _340  and  _341
REMARK  138  A    between atoms: _344  and  _346
REMARK  139  A    between atoms: _346  and  _347
REMARK  140  A    between atoms: _346  and  _349
REMARK  141  A    between atoms: _349  and  _350
REMARK  142  A    between atoms: _350  and  _351
REMARK  143  A    between atoms: _356  and  _358
REMARK  144  A    between atoms: _358  and  _359
REMARK  145  A    between atoms: _358  and  _361
REMARK  146  A    between atoms: _361  and  _362
REMARK  147  A    between atoms: _365  and  _367
REMARK  148  A    between atoms: _367  and  _368
REMARK  149  A    between atoms: _367  and  _370
REMARK  150  A    between atoms: _370  and  _371
REMARK  151  A    between atoms: _374  and  _376
REMARK  152  A    between atoms: _376  and  _377
REMARK  153  A    between atoms: _379  and  _381
REMARK  154  A    between atoms: _381  and  _382
REMARK  155  A    between atoms: _381  and  _384
REMARK  156  A    between atoms: _388  and  _389
REMARK  157  A    between atoms: _394  and  _396
REMARK  158  A    between atoms: _396  and  _397
REMARK  159  A    between atoms: _396  and  _399
REMARK  160  A    between atoms: _399  and  _400
REMARK  161  A    between atoms: _403  and  _405
REMARK  162  A    between atoms: _405  and  _406
REMARK  163  A    between atoms: _405  and  _408
REMARK  164  A    between atoms: _411  and  _413
REMARK  165  A    between atoms: _413  and  _414
REMARK  166  A    between atoms: _413  and  _416
REMARK  167  A    between atoms: _416  and  _417
REMARK  168  A    between atoms: _417  and  _418
REMARK  169  A    between atoms: _418  and  _419
REMARK  170  A    between atoms: _428  and  _430
REMARK  171  A    between atoms: _430  and  _431
REMARK  172  A    between atoms: _430  and  _433
REMARK  173  A    between atoms: _433  and  _434
REMARK  174  A    between atoms: _437  and  _439
REMARK  175  A    between atoms: _439  and  _440
REMARK  176  A    between atoms: _443  and  _445
REMARK  177  A    between atoms: _445  and  _446
REMARK  178  A    between atoms: _445  and  _448
REMARK  179  A    between atoms: _448  and  _449
REMARK  180  A    between atoms: _449  and  _450
REMARK  181  A    between atoms: _452  and  _454
REMARK  182  A    between atoms: _454  and  _455
REMARK  183  A    between atoms: _454  and  _457
REMARK  184  A    between atoms: _457  and  _458
REMARK  185  A    between atoms: _460  and  _462
REMARK  186  A    between atoms: _462  and  _463
REMARK  187  A    between atoms: _462  and  _465
REMARK  188  A    between atoms: _465  and  _466
REMARK  189  A    between atoms: _468  and  _470
REMARK  190  A    between atoms: _470  and  _471
REMARK  191  A    between atoms: _470  and  _473
REMARK  192  A    between atoms: _473  and  _474
REMARK  193  A    between atoms: _474  and  _475
REMARK  194  A    between atoms: _475  and  _476
REMARK  195  A    between atoms: _485  and  _487
REMARK  196  A    between atoms: _487  and  _488
REMARK  197  A    between atoms: _487  and  _490
REMARK  198  A    between atoms: _490  and  _491
REMARK  199  A    between atoms: _496  and  _498
REMARK  200  A    between atoms: _498  and  _499
REMARK  201  A    between atoms: _498  and  _501
REMARK  202  A    between atoms: _501  and  _502
REMARK  203  A    between atoms: _502  and  _503
REMARK  204  A    between atoms: _503  and  _504
REMARK  205  A    between atoms: _513  and  _515
REMARK  206  A    between atoms: _515  and  _516
REMARK  207  A    between atoms: _515  and  _518
REMARK  208  A    between atoms: _518  and  _519
REMARK  209  A    between atoms: _519  and  _520
REMARK  210  A    between atoms: _520  and  _521
REMARK  211  A    between atoms: _530  and  _532
REMARK  212  A    between atoms: _532  and  _533
REMARK  213  A    between atoms: _532  and  _535
REMARK  214  A    between atoms: _535  and  _536
REMARK  215  A    between atoms: _539  and  _541
REMARK  216  A    between atoms: _541  and  _542
REMARK  217  A    between atoms: _541  and  _544
REMARK  218  A    between atoms: _544  and  _545
REMARK  219  A    between atoms: _548  and  _550
REMARK  220  A    between atoms: _550  and  _551
REMARK  221  A    between atoms: _550  and  _553
REMARK  222  A    between atoms: _553  and  _554
REMARK                            x       y       z     vdW  Elec       q    Type
REMARK                         _______ _______ _______ _____ _____    ______ ____
ROOT
ATOM      1  O   HOH     1      23.653   9.272   6.153  0.00  0.00    +0.000 OA
ENDROOT
TORSDOF 0
REMARK  Name = ../refined-set-2016/3ivx/3ivx_pocket.pdb
REMARK  222 active torsions:
REMARK  status: ('A' for Active; 'I' for Inactive)
REMARK    1  A    between atoms: _1  and  _3
REMARK    2  A    between atoms: _3  and  _4
REMARK    3  A    between atoms: _3  and  _6
REMARK    4  A    between atoms: _6  and  _7
REMARK    5  A    between atoms: _10  and  _12
REMARK    6  A    between atoms: _12  and  _13
REMARK    7  A    between atoms: _12  and  _15
REMARK    8  A    between atoms: _19  and  _20
REMARK    9  A    between atoms: _25  and  _27
REMARK   10  A    between atoms: _27  and  _28
REMARK   11  A    between atoms: _27  and  _30
REMARK   12  A    between atoms: _30  and  _31
REMARK   13  A    between atoms: _34  and  _36
REMARK   14  A    between atoms: _36  and  _37
REMARK   15  A    between atoms: _36  and  _39
REMARK   16  A    between atoms: _39  and  _40
REMARK   17  A    between atoms: _40  and  _41
REMARK   18  A    between atoms: _43  and  _45
REMARK   19  A    between atoms: _45  and  _46
REMARK   20  A    between atoms: _48  and  _50
REMARK   21  A    between atoms: _50  and  _51
REMARK   22  A    between atoms: _54  and  _56
REMARK   23  A    between atoms: _56  and  _57
REMARK   24  A    between atoms: _56  and  _59
REMARK   25  A    between atoms: _59  and  _60
REMARK   26  A    between atoms: _63  and  _65
REMARK   27  A    between atoms: _65  and  _66
REMARK   28  A    between atoms: _65  and  _68
REMARK   29  A    between atoms: _68  and  _69
REMARK   30  A    between atoms: _74  and  _76
REMARK   31  A    between atoms: _76  and  _77
REMARK   32  A    between atoms: _76  and  _79
REMARK   33  A    between atoms: _79  and  _80
REMARK   34  A    between atoms: _80  and  _81
REMARK   35  A    between atoms: _84  and  _86
REMARK   36  A    between atoms: _86  and  _87
REMARK   37  A    between atoms: _89  and  _91
REMARK   38  A    between atoms: _91  and  _92
REMARK   39  A    between atoms: _91  and  _94
REMARK   40  A    between atoms: _94  and  _95
REMARK   41  A    between atoms: _100  and  _102
REMARK   42  A    between atoms: _102  and  _103
REMARK   43  A    between atoms: _102  and  _105
REMARK   44  A    between atoms: _105  and  _106
REMARK   45  A    between atoms: _109  and  _111
REMARK   46  A    between atoms: _111  and  _112
REMARK   47  A    between atoms: _115  and  _117
REMARK   48  A    between atoms: _117  and  _118
REMARK   49  A    between atoms: _117  and  _120
REMARK   50  A    between atoms: _120  and  _121
REMARK   51  A    between atoms: _124  and  _126
REMARK   52  A    between atoms: _126  and  _127
REMARK   53  A    between atoms: _126  and  _129
REMARK   54  A    between atoms: _132  and  _134
REMARK   55  A    between atoms: _134  and  _135
REMARK   56  A    between atoms: _138  and  _140
REMARK   57  A    between atoms: _140  and  _141
REMARK   58  A    between atoms: _140  and  _143
REMARK   59  A    between atoms: _143  and  _144
REMARK   60  A    between atoms: _146  and  _148
REMARK   61  A    between atoms: _148  and  _149
REMARK   62  A    between atoms: _148  and  _151
REMARK   63  A    between atoms: _151  and  _152
REMARK   64  A    between atoms: _155  and  _157
REMARK   65  A    between atoms: _157  and  _158
REMARK   66  A    between atoms: _157  and  _160
REMARK   67  A    between atoms: _160  and  _161
REMARK   68  A    between atoms: _167  and  _169
REMARK   69  A    between atoms: _169  and  _170
REMARK   70  A    between atoms: _169  and  _172
REMARK   71  A    between atoms: _175  and  _177
REMARK   72  A    between atoms: _177  and  _178
REMARK   73  A    between atoms: _177  and  _180
REMARK   74  A    between atoms: _180  and  _181
REMARK   75  A    between atoms: _186  and  _188
REMARK   76  A    between atoms: _188  and  _189
REMARK   77  A    between atoms: _188  and  _191
REMARK   78  A    between atoms: _191  and  _192
REMARK   79  A    between atoms: _192  and  _193
REMARK   80  A    between atoms: _198  and  _200
REMARK   81  A    between atoms: _200  and  _201
REMARK   82  A    between atoms: _200  and  _203
REMARK   83  A    between atoms: _203  and  _204
REMARK   84  A    between atoms: _209  and  _210
REMARK   85  A    between atoms: _213  and  _214
REMARK   86  A    between atoms: _219  and  _221
REMARK   87  A    between atoms: _221  and  _222
REMARK   88  A    between atoms: _224  and  _226
REMARK   89  A    between atoms: _226  and  _227
REMARK   90  A    between atoms: _226  and  _229
REMARK   91  A    between atoms: _232  and  _234
REMARK   92  A    between atoms: _234  and  _235
REMARK   93  A    between atoms: _234  and  _237
REMARK   94  A    between atoms: _237  and  _238
REMARK   95  A    between atoms: _241  and  _243
REMARK   96  A    between atoms: _243  and  _244
REMARK   97  A    between atoms: _243  and  _246
REMARK   98  A    between atoms: _249  and  _251
REMARK   99  A    between atoms: _251  and  _252
REMARK  100  A    between atoms: _251  and  _254
REMARK  101  A    between atoms: _257  and  _259
REMARK  102  A    between atoms: _259  and  _260
REMARK  103  A    between atoms: _259  and  _262
REMARK  104  A    between atoms: _262  and  _263
REMARK  105  A    between atoms: _266  and  _268
REMARK  106  A    between atoms: _268  and  _269
REMARK  107  A    between atoms: _268  and  _271
REMARK  108  A    between atoms: _271  and  _272
REMARK  109  A    between atoms: _275  and  _277
REMARK  110  A    between atoms: _277  and  _278
REMARK  111  A    between atoms: _277  and  _280
REMARK  112  A    between atoms: _283  and  _285
REMARK  113  A    between atoms: _285  and  _286
REMARK  114  A    between atoms: _285  and  _288
REMARK  115  A    between atoms: _288  and  _289
REMARK  116  A    between atoms: _295  and  _297
REMARK  117  A    between atoms: _297  and  _298
REMARK  118  A    between atoms: _297  and  _300
REMARK  119  A    between atoms: _300  and  _301
REMARK  120  A    between atoms: _307  and  _309
REMARK  121  A    between atoms: _309  and  _310
REMARK  122  A    between atoms: _312  and  _314
REMARK  123  A    between atoms: _314  and  _315
REMARK  124  A    between atoms: _314  and  _317
REMARK  125  A    between atoms: _317  and  _318
REMARK  126  A    between atoms: _318  and  _319
REMARK  127  A    between atoms: _322  and  _324
REMARK  128  A    between atoms: _324  and  _325
REMARK  129  A    between atoms: _324  and  _327
REMARK  130  A    between atoms: _327  and  _328
REMARK  131  A    between atoms: _328  and  _329
REMARK  132  A    between atoms: _329  and  _330
REMARK  133  A    between atoms: _330  and  _331
REMARK  134  A    between atoms: _335  and  _337
REMARK  135  A    between atoms: _337  and  _338
REMARK  136  A    between atoms: _337  and  _340
REMARK  137  A    between atoms: _340  and  _341
REMARK  138  A    between atoms: _344  and  _346
REMARK  139  A    between atoms: _346  and  _347
REMARK  140  A    between atoms: _346  and  _349
REMARK  141  A    between atoms: _349  and  _350
REMARK  142  A    between atoms: _350  and  _351
REMARK  143  A    between atoms: _356  and  _358
REMARK  144  A    between atoms: _358  and  _359
REMARK  145  A    between atoms: _358  and  _361
REMARK  146  A    between atoms: _361  and  _362
REMARK  147  A    between atoms: _365  and  _367
REMARK  148  A    between atoms: _367  and  _368
REMARK  149  A    between atoms: _367  and  _370
REMARK  150  A    between atoms: _370  and  _371
REMARK  151  A    between atoms: _374  and  _376
REMARK  152  A    between atoms: _376  and  _377
REMARK  153  A    between atoms: _379  and  _381
REMARK  154  A    between atoms: _381  and  _382
REMARK  155  A    between atoms: _381  and  _384
REMARK  156  A    between atoms: _388  and  _389
REMARK  157  A    between atoms: _394  and  _396
REMARK  158  A    between atoms: _396  and  _397
REMARK  159  A    between atoms: _396  and  _399
REMARK  160  A    between atoms: _399  and  _400
REMARK  161  A    between atoms: _403  and  _405
REMARK  162  A    between atoms: _405  and  _406
REMARK  163  A    between atoms: _405  and  _408
REMARK  164  A    between atoms: _411  and  _413
REMARK  165  A    between atoms: _413  and  _414
REMARK  166  A    between atoms: _413  and  _416
REMARK  167  A    between atoms: _416  and  _417
REMARK  168  A    between atoms: _417  and  _418
REMARK  169  A    between atoms: _418  and  _419
REMARK  170  A    between atoms: _428  and  _430
REMARK  171  A    between atoms: _430  and  _431
REMARK  172  A    between atoms: _430  and  _433
REMARK  173  A    between atoms: _433  and  _434
REMARK  174  A    between atoms: _437  and  _439
REMARK  175  A    between atoms: _439  and  _440
REMARK  176  A    between atoms: _443  and  _445
REMARK  177  A    between atoms: _445  and  _446
REMARK  178  A    between atoms: _445  and  _448
REMARK  179  A    between atoms: _448  and  _449
REMARK  180  A    between atoms: _449  and  _450
REMARK  181  A    between atoms: _452  and  _454
REMARK  182  A    between atoms: _454  and  _455
REMARK  183  A    between atoms: _454  and  _457
REMARK  184  A    between atoms: _457  and  _458
REMARK  185  A    between atoms: _460  and  _462
REMARK  186  A    between atoms: _462  and  _463
REMARK  187  A    between atoms: _462  and  _465
REMARK  188  A    between atoms: _465  and  _466
REMARK  189  A    between atoms: _468  and  _470
REMARK  190  A    between atoms: _470  and  _471
REMARK  191  A    between atoms: _470  and  _473
REMARK  192  A    between atoms: _473  and  _474
REMARK  193  A    between atoms: _474  and  _475
REMARK  194  A    between atoms: _475  and  _476
REMARK  195  A    between atoms: _485  and  _487
REMARK  196  A    between atoms: _487  and  _488
REMARK  197  A    between atoms: _487  and  _490
REMARK  198  A    between atoms: _490  and  _491
REMARK  199  A    between atoms: _496  and  _498
REMARK  200  A    between atoms: _498  and  _499
REMARK  201  A    between atoms: _498  and  _501
REMARK  202  A    between atoms: _501  and  _502
REMARK  203  A    between atoms: _502  and  _503
REMARK  204  A    between atoms: _503  and  _504
REMARK  205  A    between atoms: _513  and  _515
REMARK  206  A    between atoms: _515  and  _516
REMARK  207  A    between atoms: _515  and  _518
REMARK  208  A    between atoms: _518  and  _519
REMARK  209  A    between atoms: _519  and  _520
REMARK  210  A    between atoms: _520  and  _521
REMARK  211  A    between atoms: _530  and  _532
REMARK  212  A    between atoms: _532  and  _533
REMARK  213  A    between atoms: _532  and  _535
REMARK  214  A    between atoms: _535  and  _536
REMARK  215  A    between atoms: _539  and  _541
REMARK  216  A    between atoms: _541  and  _542
REMARK  217  A    between atoms: _541  and  _544
REMARK  218  A    between atoms: _544  and  _545
REMARK  219  A    between atoms: _548  and  _550
REMARK  220  A    between atoms: _550  and  _551
REMARK  221  A    between atoms: _550  and  _553
REMARK  222  A    between atoms: _553  and  _554
REMARK                            x       y       z     vdW  Elec       q    Type
REMARK                         _______ _______ _______ _____ _____    ______ ____
ROOT
ATOM      1  O   HOH     1      23.976   9.336  -1.535  0.00  0.00    +0.000 OA
ENDROOT
TORSDOF 0
REMARK  Name = ../refined-set-2016/3ivx/3ivx_pocket.pdb
REMARK  222 active torsions:
REMARK  status: ('A' for Active; 'I' for Inactive)
REMARK    1  A    between atoms: _1  and  _3
REMARK    2  A    between atoms: _3  and  _4
REMARK    3  A    between atoms: _3  and  _6
REMARK    4  A    between atoms: _6  and  _7
REMARK    5  A    between atoms: _10  and  _12
REMARK    6  A    between atoms: _12  and  _13
REMARK    7  A    between atoms: _12  and  _15
REMARK    8  A    between atoms: _19  and  _20
REMARK    9  A    between atoms: _25  and  _27
REMARK   10  A    between atoms: _27  and  _28
REMARK   11  A    between atoms: _27  and  _30
REMARK   12  A    between atoms: _30  and  _31
REMARK   13  A    between atoms: _34  and  _36
REMARK   14  A    between atoms: _36  and  _37
REMARK   15  A    between atoms: _36  and  _39
REMARK   16  A    between atoms: _39  and  _40
REMARK   17  A    between atoms: _40  and  _41
REMARK   18  A    between atoms: _43  and  _45
REMARK   19  A    between atoms: _45  and  _46
REMARK   20  A    between atoms: _48  and  _50
REMARK   21  A    between atoms: _50  and  _51
REMARK   22  A    between atoms: _54  and  _56
REMARK   23  A    between atoms: _56  and  _57
REMARK   24  A    between atoms: _56  and  _59
REMARK   25  A    between atoms: _59  and  _60
REMARK   26  A    between atoms: _63  and  _65
REMARK   27  A    between atoms: _65  and  _66
REMARK   28  A    between atoms: _65  and  _68
REMARK   29  A    between atoms: _68  and  _69
REMARK   30  A    between atoms: _74  and  _76
REMARK   31  A    between atoms: _76  and  _77
REMARK   32  A    between atoms: _76  and  _79
REMARK   33  A    between atoms: _79  and  _80
REMARK   34  A    between atoms: _80  and  _81
REMARK   35  A    between atoms: _84  and  _86
REMARK   36  A    between atoms: _86  and  _87
REMARK   37  A    between atoms: _89  and  _91
REMARK   38  A    between atoms: _91  and  _92
REMARK   39  A    between atoms: _91  and  _94
REMARK   40  A    between atoms: _94  and  _95
REMARK   41  A    between atoms: _100  and  _102
REMARK   42  A    between atoms: _102  and  _103
REMARK   43  A    between atoms: _102  and  _105
REMARK   44  A    between atoms: _105  and  _106
REMARK   45  A    between atoms: _109  and  _111
REMARK   46  A    between atoms: _111  and  _112
REMARK   47  A    between atoms: _115  and  _117
REMARK   48  A    between atoms: _117  and  _118
REMARK   49  A    between atoms: _117  and  _120
REMARK   50  A    between atoms: _120  and  _121
REMARK   51  A    between atoms: _124  and  _126
REMARK   52  A    between atoms: _126  and  _127
REMARK   53  A    between atoms: _126  and  _129
REMARK   54  A    between atoms: _132  and  _134
REMARK   55  A    between atoms: _134  and  _135
REMARK   56  A    between atoms: _138  and  _140
REMARK   57  A    between atoms: _140  and  _141
REMARK   58  A    between atoms: _140  and  _143
REMARK   59  A    between atoms: _143  and  _144
REMARK   60  A    between atoms: _146  and  _148
REMARK   61  A    between atoms: _148  and  _149
REMARK   62  A    between atoms: _148  and  _151
REMARK   63  A    between atoms: _151  and  _152
REMARK   64  A    between atoms: _155  and  _157
REMARK   65  A    between atoms: _157  and  _158
REMARK   66  A    between atoms: _157  and  _160
REMARK   67  A    between atoms: _160  and  _161
REMARK   68  A    between atoms: _167  and  _169
REMARK   69  A    between atoms: _169  and  _170
REMARK   70  A    between atoms: _169  and  _172
REMARK   71  A    between atoms: _175  and  _177
REMARK   72  A    between atoms: _177  and  _178
REMARK   73  A    between atoms: _177  and  _180
REMARK   74  A    between atoms: _180  and  _181
REMARK   75  A    between atoms: _186  and  _188
REMARK   76  A    between atoms: _188  and  _189
REMARK   77  A    between atoms: _188  and  _191
REMARK   78  A    between atoms: _191  and  _192
REMARK   79  A    between atoms: _192  and  _193
REMARK   80  A    between atoms: _198  and  _200
REMARK   81  A    between atoms: _200  and  _201
REMARK   82  A    between atoms: _200  and  _203
REMARK   83  A    between atoms: _203  and  _204
REMARK   84  A    between atoms: _209  and  _210
REMARK   85  A    between atoms: _213  and  _214
REMARK   86  A    between atoms: _219  and  _221
REMARK   87  A    between atoms: _221  and  _222
REMARK   88  A    between atoms: _224  and  _226
REMARK   89  A    between atoms: _226  and  _227
REMARK   90  A    between atoms: _226  and  _229
REMARK   91  A    between atoms: _232  and  _234
REMARK   92  A    between atoms: _234  and  _235
REMARK   93  A    between atoms: _234  and  _237
REMARK   94  A    between atoms: _237  and  _238
REMARK   95  A    between atoms: _241  and  _243
REMARK   96  A    between atoms: _243  and  _244
REMARK   97  A    between atoms: _243  and  _246
REMARK   98  A    between atoms: _249  and  _251
REMARK   99  A    between atoms: _251  and  _252
REMARK  100  A    between atoms: _251  and  _254
REMARK  101  A    between atoms: _257  and  _259
REMARK  102  A    between atoms: _259  and  _260
REMARK  103  A    between atoms: _259  and  _262
REMARK  104  A    between atoms: _262  and  _263
REMARK  105  A    between atoms: _266  and  _268
REMARK  106  A    between atoms: _268  and  _269
REMARK  107  A    between atoms: _268  and  _271
REMARK  108  A    between atoms: _271  and  _272
REMARK  109  A    between atoms: _275  and  _277
REMARK  110  A    between atoms: _277  and  _278
REMARK  111  A    between atoms: _277  and  _280
REMARK  112  A    between atoms: _283  and  _285
REMARK  113  A    between atoms: _285  and  _286
REMARK  114  A    between atoms: _285  and  _288
REMARK  115  A    between atoms: _288  and  _289
REMARK  116  A    between atoms: _295  and  _297
REMARK  117  A    between atoms: _297  and  _298
REMARK  118  A    between atoms: _297  and  _300
REMARK  119  A    between atoms: _300  and  _301
REMARK  120  A    between atoms: _307  and  _309
REMARK  121  A    between atoms: _309  and  _310
REMARK  122  A    between atoms: _312  and  _314
REMARK  123  A    between atoms: _314  and  _315
REMARK  124  A    between atoms: _314  and  _317
REMARK  125  A    between atoms: _317  and  _318
REMARK  126  A    between atoms: _318  and  _319
REMARK  127  A    between atoms: _322  and  _324
REMARK  128  A    between atoms: _324  and  _325
REMARK  129  A    between atoms: _324  and  _327
REMARK  130  A    between atoms: _327  and  _328
REMARK  131  A    between atoms: _328  and  _329
REMARK  132  A    between atoms: _329  and  _330
REMARK  133  A    between atoms: _330  and  _331
REMARK  134  A    between atoms: _335  and  _337
REMARK  135  A    between atoms: _337  and  _338
REMARK  136  A    between atoms: _337  and  _340
REMARK  137  A    between atoms: _340  and  _341
REMARK  138  A    between atoms: _344  and  _346
REMARK  139  A    between atoms: _346  and  _347
REMARK  140  A    between atoms: _346  and  _349
REMARK  141  A    between atoms: _349  and  _350
REMARK  142  A    between atoms: _350  and  _351
REMARK  143  A    between atoms: _356  and  _358
REMARK  144  A    between atoms: _358  and  _359
REMARK  145  A    between atoms: _358  and  _361
REMARK  146  A    between atoms: _361  and  _362
REMARK  147  A    between atoms: _365  and  _367
REMARK  148  A    between atoms: _367  and  _368
REMARK  149  A    between atoms: _367  and  _370
REMARK  150  A    between atoms: _370  and  _371
REMARK  151  A    between atoms: _374  and  _376
REMARK  152  A    between atoms: _376  and  _377
REMARK  153  A    between atoms: _379  and  _381
REMARK  154  A    between atoms: _381  and  _382
REMARK  155  A    between atoms: _381  and  _384
REMARK  156  A    between atoms: _388  and  _389
REMARK  157  A    between atoms: _394  and  _396
REMARK  158  A    between atoms: _396  and  _397
REMARK  159  A    between atoms: _396  and  _399
REMARK  160  A    between atoms: _399  and  _400
REMARK  161  A    between atoms: _403  and  _405
REMARK  162  A    between atoms: _405  and  _406
REMARK  163  A    between atoms: _405  and  _408
REMARK  164  A    between atoms: _411  and  _413
REMARK  165  A    between atoms: _413  and  _414
REMARK  166  A    between atoms: _413  and  _416
REMARK  167  A    between atoms: _416  and  _417
REMARK  168  A    between atoms: _417  and  _418
REMARK  169  A    between atoms: _418  and  _419
REMARK  170  A    between atoms: _428  and  _430
REMARK  171  A    between atoms: _430  and  _431
REMARK  172  A    between atoms: _430  and  _433
REMARK  173  A    between atoms: _433  and  _434
REMARK  174  A    between atoms: _437  and  _439
REMARK  175  A    between atoms: _439  and  _440
REMARK  176  A    between atoms: _443  and  _445
REMARK  177  A    between atoms: _445  and  _446
REMARK  178  A    between atoms: _445  and  _448
REMARK  179  A    between atoms: _448  and  _449
REMARK  180  A    between atoms: _449  and  _450
REMARK  181  A    between atoms: _452  and  _454
REMARK  182  A    between atoms: _454  and  _455
REMARK  183  A    between atoms: _454  and  _457
REMARK  184  A    between atoms: _457  and  _458
REMARK  185  A    between atoms: _460  and  _462
REMARK  186  A    between atoms: _462  and  _463
REMARK  187  A    between atoms: _462  and  _465
REMARK  188  A    between atoms: _465  and  _466
REMARK  189  A    between atoms: _468  and  _470
REMARK  190  A    between atoms: _470  and  _471
REMARK  191  A    between atoms: _470  and  _473
REMARK  192  A    between atoms: _473  and  _474
REMARK  193  A    between atoms: _474  and  _475
REMARK  194  A    between atoms: _475  and  _476
REMARK  195  A    between atoms: _485  and  _487
REMARK  196  A    between atoms: _487  and  _488
REMARK  197  A    between atoms: _487  and  _490
REMARK  198  A    between atoms: _490  and  _491
REMARK  199  A    between atoms: _496  and  _498
REMARK  200  A    between atoms: _498  and  _499
REMARK  201  A    between atoms: _498  and  _501
REMARK  202  A    between atoms: _501  and  _502
REMARK  203  A    between atoms: _502  and  _503
REMARK  204  A    between atoms: _503  and  _504
REMARK  205  A    between atoms: _513  and  _515
REMARK  206  A    between atoms: _515  and  _516
REMARK  207  A    between atoms: _515  and  _518
REMARK  208  A    between atoms: _518  and  _519
REMARK  209  A    between atoms: _519  and  _520
REMARK  210  A    between atoms: _520  and  _521
REMARK  211  A    between atoms: _530  and  _532
REMARK  212  A    between atoms: _532  and  _533
REMARK  213  A    between atoms: _532  and  _535
REMARK  214  A    between atoms: _535  and  _536
REMARK  215  A    between atoms: _539  and  _541
REMARK  216  A    between atoms: _541  and  _542
REMARK  217  A    between atoms: _541  and  _544
REMARK  218  A    between atoms: _544  and  _545
REMARK  219  A    between atoms: _548  and  _550
REMARK  220  A    between atoms: _550  and  _551
REMARK  221  A    between atoms: _550  and  _553
REMARK  222  A    between atoms: _553  and  _554
REMARK                            x       y       z     vdW  Elec       q    Type
REMARK                         _______ _______ _______ _____ _____    ______ ____
ROOT
ATOM      1  O   HOH     1       7.643  13.987  -9.410  0.00  0.00    +0.000 OA
ENDROOT
TORSDOF 0
REMARK  Name = ../refined-set-2016/3ivx/3ivx_pocket.pdb
REMARK  222 active torsions:
REMARK  status: ('A' for Active; 'I' for Inactive)
REMARK    1  A    between atoms: _1  and  _3
REMARK    2  A    between atoms: _3  and  _4
REMARK    3  A    between atoms: _3  and  _6
REMARK    4  A    between atoms: _6  and  _7
REMARK    5  A    between atoms: _10  and  _12
REMARK    6  A    between atoms: _12  and  _13
REMARK    7  A    between atoms: _12  and  _15
REMARK    8  A    between atoms: _19  and  _20
REMARK    9  A    between atoms: _25  and  _27
REMARK   10  A    between atoms: _27  and  _28
REMARK   11  A    between atoms: _27  and  _30
REMARK   12  A    between atoms: _30  and  _31
REMARK   13  A    between atoms: _34  and  _36
REMARK   14  A    between atoms: _36  and  _37
REMARK   15  A    between atoms: _36  and  _39
REMARK   16  A    between atoms: _39  and  _40
REMARK   17  A    between atoms: _40  and  _41
REMARK   18  A    between atoms: _43  and  _45
REMARK   19  A    between atoms: _45  and  _46
REMARK   20  A    between atoms: _48  and  _50
REMARK   21  A    between atoms: _50  and  _51
REMARK   22  A    between atoms: _54  and  _56
REMARK   23  A    between atoms: _56  and  _57
REMARK   24  A    between atoms: _56  and  _59
REMARK   25  A    between atoms: _59  and  _60
REMARK   26  A    between atoms: _63  and  _65
REMARK   27  A    between atoms: _65  and  _66
REMARK   28  A    between atoms: _65  and  _68
REMARK   29  A    between atoms: _68  and  _69
REMARK   30  A    between atoms: _74  and  _76
REMARK   31  A    between atoms: _76  and  _77
REMARK   32  A    between atoms: _76  and  _79
REMARK   33  A    between atoms: _79  and  _80
REMARK   34  A    between atoms: _80  and  _81
REMARK   35  A    between atoms: _84  and  _86
REMARK   36  A    between atoms: _86  and  _87
REMARK   37  A    between atoms: _89  and  _91
REMARK   38  A    between atoms: _91  and  _92
REMARK   39  A    between atoms: _91  and  _94
REMARK   40  A    between atoms: _94  and  _95
REMARK   41  A    between atoms: _100  and  _102
REMARK   42  A    between atoms: _102  and  _103
REMARK   43  A    between atoms: _102  and  _105
REMARK   44  A    between atoms: _105  and  _106
REMARK   45  A    between atoms: _109  and  _111
REMARK   46  A    between atoms: _111  and  _112
REMARK   47  A    between atoms: _115  and  _117
REMARK   48  A    between atoms: _117  and  _118
REMARK   49  A    between atoms: _117  and  _120
REMARK   50  A    between atoms: _120  and  _121
REMARK   51  A    between atoms: _124  and  _126
REMARK   52  A    between atoms: _126  and  _127
REMARK   53  A    between atoms: _126  and  _129
REMARK   54  A    between atoms: _132  and  _134
REMARK   55  A    between atoms: _134  and  _135
REMARK   56  A    between atoms: _138  and  _140
REMARK   57  A    between atoms: _140  and  _141
REMARK   58  A    between atoms: _140  and  _143
REMARK   59  A    between atoms: _143  and  _144
REMARK   60  A    between atoms: _146  and  _148
REMARK   61  A    between atoms: _148  and  _149
REMARK   62  A    between atoms: _148  and  _151
REMARK   63  A    between atoms: _151  and  _152
REMARK   64  A    between atoms: _155  and  _157
REMARK   65  A    between atoms: _157  and  _158
REMARK   66  A    between atoms: _157  and  _160
REMARK   67  A    between atoms: _160  and  _161
REMARK   68  A    between atoms: _167  and  _169
REMARK   69  A    between atoms: _169  and  _170
REMARK   70  A    between atoms: _169  and  _172
REMARK   71  A    between atoms: _175  and  _177
REMARK   72  A    between atoms: _177  and  _178
REMARK   73  A    between atoms: _177  and  _180
REMARK   74  A    between atoms: _180  and  _181
REMARK   75  A    between atoms: _186  and  _188
REMARK   76  A    between atoms: _188  and  _189
REMARK   77  A    between atoms: _188  and  _191
REMARK   78  A    between atoms: _191  and  _192
REMARK   79  A    between atoms: _192  and  _193
REMARK   80  A    between atoms: _198  and  _200
REMARK   81  A    between atoms: _200  and  _201
REMARK   82  A    between atoms: _200  and  _203
REMARK   83  A    between atoms: _203  and  _204
REMARK   84  A    between atoms: _209  and  _210
REMARK   85  A    between atoms: _213  and  _214
REMARK   86  A    between atoms: _219  and  _221
REMARK   87  A    between atoms: _221  and  _222
REMARK   88  A    between atoms: _224  and  _226
REMARK   89  A    between atoms: _226  and  _227
REMARK   90  A    between atoms: _226  and  _229
REMARK   91  A    between atoms: _232  and  _234
REMARK   92  A    between atoms: _234  and  _235
REMARK   93  A    between atoms: _234  and  _237
REMARK   94  A    between atoms: _237  and  _238
REMARK   95  A    between atoms: _241  and  _243
REMARK   96  A    between atoms: _243  and  _244
REMARK   97  A    between atoms: _243  and  _246
REMARK   98  A    between atoms: _249  and  _251
REMARK   99  A    between atoms: _251  and  _252
REMARK  100  A    between atoms: _251  and  _254
REMARK  101  A    between atoms: _257  and  _259
REMARK  102  A    between atoms: _259  and  _260
REMARK  103  A    between atoms: _259  and  _262
REMARK  104  A    between atoms: _262  and  _263
REMARK  105  A    between atoms: _266  and  _268
REMARK  106  A    between atoms: _268  and  _269
REMARK  107  A    between atoms: _268  and  _271
REMARK  108  A    between atoms: _271  and  _272
REMARK  109  A    between atoms: _275  and  _277
REMARK  110  A    between atoms: _277  and  _278
REMARK  111  A    between atoms: _277  and  _280
REMARK  112  A    between atoms: _283  and  _285
REMARK  113  A    between atoms: _285  and  _286
REMARK  114  A    between atoms: _285  and  _288
REMARK  115  A    between atoms: _288  and  _289
REMARK  116  A    between atoms: _295  and  _297
REMARK  117  A    between atoms: _297  and  _298
REMARK  118  A    between atoms: _297  and  _300
REMARK  119  A    between atoms: _300  and  _301
REMARK  120  A    between atoms: _307  and  _309
REMARK  121  A    between atoms: _309  and  _310
REMARK  122  A    between atoms: _312  and  _314
REMARK  123  A    between atoms: _314  and  _315
REMARK  124  A    between atoms: _314  and  _317
REMARK  125  A    between atoms: _317  and  _318
REMARK  126  A    between atoms: _318  and  _319
REMARK  127  A    between atoms: _322  and  _324
REMARK  128  A    between atoms: _324  and  _325
REMARK  129  A    between atoms: _324  and  _327
REMARK  130  A    between atoms: _327  and  _328
REMARK  131  A    between atoms: _328  and  _329
REMARK  132  A    between atoms: _329  and  _330
REMARK  133  A    between atoms: _330  and  _331
REMARK  134  A    between atoms: _335  and  _337
REMARK  135  A    between atoms: _337  and  _338
REMARK  136  A    between atoms: _337  and  _340
REMARK  137  A    between atoms: _340  and  _341
REMARK  138  A    between atoms: _344  and  _346
REMARK  139  A    between atoms: _346  and  _347
REMARK  140  A    between atoms: _346  and  _349
REMARK  141  A    between atoms: _349  and  _350
REMARK  142  A    between atoms: _350  and  _351
REMARK  143  A    between atoms: _356  and  _358
REMARK  144  A    between atoms: _358  and  _359
REMARK  145  A    between atoms: _358  and  _361
REMARK  146  A    between atoms: _361  and  _362
REMARK  147  A    between atoms: _365  and  _367
REMARK  148  A    between atoms: _367  and  _368
REMARK  149  A    between atoms: _367  and  _370
REMARK  150  A    between atoms: _370  and  _371
REMARK  151  A    between atoms: _374  and  _376
REMARK  152  A    between atoms: _376  and  _377
REMARK  153  A    between atoms: _379  and  _381
REMARK  154  A    between atoms: _381  and  _382
REMARK  155  A    between atoms: _381  and  _384
REMARK  156  A    between atoms: _388  and  _389
REMARK  157  A    between atoms: _394  and  _396
REMARK  158  A    between atoms: _396  and  _397
REMARK  159  A    between atoms: _396  and  _399
REMARK  160  A    between atoms: _399  and  _400
REMARK  161  A    between atoms: _403  and  _405
REMARK  162  A    between atoms: _405  and  _406
REMARK  163  A    between atoms: _405  and  _408
REMARK  164  A    between atoms: _411  and  _413
REMARK  165  A    between atoms: _413  and  _414
REMARK  166  A    between atoms: _413  and  _416
REMARK  167  A    between atoms: _416  and  _417
REMARK  168  A    between atoms: _417  and  _418
REMARK  169  A    between atoms: _418  and  _419
REMARK  170  A    between atoms: _428  and  _430
REMARK  171  A    between atoms: _430  and  _431
REMARK  172  A    between atoms: _430  and  _433
REMARK  173  A    between atoms: _433  and  _434
REMARK  174  A    between atoms: _437  and  _439
REMARK  175  A    between atoms: _439  and  _440
REMARK  176  A    between atoms: _443  and  _445
REMARK  177  A    between atoms: _445  and  _446
REMARK  178  A    between atoms: _445  and  _448
REMARK  179  A    between atoms: _448  and  _449
REMARK  180  A    between atoms: _449  and  _450
REMARK  181  A    between atoms: _452  and  _454
REMARK  182  A    between atoms: _454  and  _455
REMARK  183  A    between atoms: _454  and  _457
REMARK  184  A    between atoms: _457  and  _458
REMARK  185  A    between atoms: _460  and  _462
REMARK  186  A    between atoms: _462  and  _463
REMARK  187  A    between atoms: _462  and  _465
REMARK  188  A    between atoms: _465  and  _466
REMARK  189  A    between atoms: _468  and  _470
REMARK  190  A    between atoms: _470  and  _471
REMARK  191  A    between atoms: _470  and  _473
REMARK  192  A    between atoms: _473  and  _474
REMARK  193  A    between atoms: _474  and  _475
REMARK  194  A    between atoms: _475  and  _476
REMARK  195  A    between atoms: _485  and  _487
REMARK  196  A    between atoms: _487  and  _488
REMARK  197  A    between atoms: _487  and  _490
REMARK  198  A    between atoms: _490  and  _491
REMARK  199  A    between atoms: _496  and  _498
REMARK  200  A    between atoms: _498  and  _499
REMARK  201  A    between atoms: _498  and  _501
REMARK  202  A    between atoms: _501  and  _502
REMARK  203  A    between atoms: _502  and  _503
REMARK  204  A    between atoms: _503  and  _504
REMARK  205  A    between atoms: _513  and  _515
REMARK  206  A    between atoms: _515  and  _516
REMARK  207  A    between atoms: _515  and  _518
REMARK  208  A    between atoms: _518  and  _519
REMARK  209  A    between atoms: _519  and  _520
REMARK  210  A    between atoms: _520  and  _521
REMARK  211  A    between atoms: _530  and  _532
REMARK  212  A    between atoms: _532  and  _533
REMARK  213  A    between atoms: _532  and  _535
REMARK  214  A    between atoms: _535  and  _536
REMARK  215  A    between atoms: _539  and  _541
REMARK  216  A    between atoms: _541  and  _542
REMARK  217  A    between atoms: _541  and  _544
REMARK  218  A    between atoms: _544  and  _545
REMARK  219  A    between atoms: _548  and  _550
REMARK  220  A    between atoms: _550  and  _551
REMARK  221  A    between atoms: _550  and  _553
REMARK  222  A    between atoms: _553  and  _554
REMARK                            x       y       z     vdW  Elec       q    Type
REMARK                         _______ _______ _______ _____ _____    ______ ____
ROOT
ATOM      1  O   HOH     1      22.080   7.104   0.316  0.00  0.00    +0.000 OA
ENDROOT
TORSDOF 0
REMARK  Name = ../refined-set-2016/3ivx/3ivx_pocket.pdb
REMARK  222 active torsions:
REMARK  status: ('A' for Active; 'I' for Inactive)
REMARK    1  A    between atoms: _1  and  _3
REMARK    2  A    between atoms: _3  and  _4
REMARK    3  A    between atoms: _3  and  _6
REMARK    4  A    between atoms: _6  and  _7
REMARK    5  A    between atoms: _10  and  _12
REMARK    6  A    between atoms: _12  and  _13
REMARK    7  A    between atoms: _12  and  _15
REMARK    8  A    between atoms: _19  and  _20
REMARK    9  A    between atoms: _25  and  _27
REMARK   10  A    between atoms: _27  and  _28
REMARK   11  A    between atoms: _27  and  _30
REMARK   12  A    between atoms: _30  and  _31
REMARK   13  A    between atoms: _34  and  _36
REMARK   14  A    between atoms: _36  and  _37
REMARK   15  A    between atoms: _36  and  _39
REMARK   16  A    between atoms: _39  and  _40
REMARK   17  A    between atoms: _40  and  _41
REMARK   18  A    between atoms: _43  and  _45
REMARK   19  A    between atoms: _45  and  _46
REMARK   20  A    between atoms: _48  and  _50
REMARK   21  A    between atoms: _50  and  _51
REMARK   22  A    between atoms: _54  and  _56
REMARK   23  A    between atoms: _56  and  _57
REMARK   24  A    between atoms: _56  and  _59
REMARK   25  A    between atoms: _59  and  _60
REMARK   26  A    between atoms: _63  and  _65
REMARK   27  A    between atoms: _65  and  _66
REMARK   28  A    between atoms: _65  and  _68
REMARK   29  A    between atoms: _68  and  _69
REMARK   30  A    between atoms: _74  and  _76
REMARK   31  A    between atoms: _76  and  _77
REMARK   32  A    between atoms: _76  and  _79
REMARK   33  A    between atoms: _79  and  _80
REMARK   34  A    between atoms: _80  and  _81
REMARK   35  A    between atoms: _84  and  _86
REMARK   36  A    between atoms: _86  and  _87
REMARK   37  A    between atoms: _89  and  _91
REMARK   38  A    between atoms: _91  and  _92
REMARK   39  A    between atoms: _91  and  _94
REMARK   40  A    between atoms: _94  and  _95
REMARK   41  A    between atoms: _100  and  _102
REMARK   42  A    between atoms: _102  and  _103
REMARK   43  A    between atoms: _102  and  _105
REMARK   44  A    between atoms: _105  and  _106
REMARK   45  A    between atoms: _109  and  _111
REMARK   46  A    between atoms: _111  and  _112
REMARK   47  A    between atoms: _115  and  _117
REMARK   48  A    between atoms: _117  and  _118
REMARK   49  A    between atoms: _117  and  _120
REMARK   50  A    between atoms: _120  and  _121
REMARK   51  A    between atoms: _124  and  _126
REMARK   52  A    between atoms: _126  and  _127
REMARK   53  A    between atoms: _126  and  _129
REMARK   54  A    between atoms: _132  and  _134
REMARK   55  A    between atoms: _134  and  _135
REMARK   56  A    between atoms: _138  and  _140
REMARK   57  A    between atoms: _140  and  _141
REMARK   58  A    between atoms: _140  and  _143
REMARK   59  A    between atoms: _143  and  _144
REMARK   60  A    between atoms: _146  and  _148
REMARK   61  A    between atoms: _148  and  _149
REMARK   62  A    between atoms: _148  and  _151
REMARK   63  A    between atoms: _151  and  _152
REMARK   64  A    between atoms: _155  and  _157
REMARK   65  A    between atoms: _157  and  _158
REMARK   66  A    between atoms: _157  and  _160
REMARK   67  A    between atoms: _160  and  _161
REMARK   68  A    between atoms: _167  and  _169
REMARK   69  A    between atoms: _169  and  _170
REMARK   70  A    between atoms: _169  and  _172
REMARK   71  A    between atoms: _175  and  _177
REMARK   72  A    between atoms: _177  and  _178
REMARK   73  A    between atoms: _177  and  _180
REMARK   74  A    between atoms: _180  and  _181
REMARK   75  A    between atoms: _186  and  _188
REMARK   76  A    between atoms: _188  and  _189
REMARK   77  A    between atoms: _188  and  _191
REMARK   78  A    between atoms: _191  and  _192
REMARK   79  A    between atoms: _192  and  _193
REMARK   80  A    between atoms: _198  and  _200
REMARK   81  A    between atoms: _200  and  _201
REMARK   82  A    between atoms: _200  and  _203
REMARK   83  A    between atoms: _203  and  _204
REMARK   84  A    between atoms: _209  and  _210
REMARK   85  A    between atoms: _213  and  _214
REMARK   86  A    between atoms: _219  and  _221
REMARK   87  A    between atoms: _221  and  _222
REMARK   88  A    between atoms: _224  and  _226
REMARK   89  A    between atoms: _226  and  _227
REMARK   90  A    between atoms: _226  and  _229
REMARK   91  A    between atoms: _232  and  _234
REMARK   92  A    between atoms: _234  and  _235
REMARK   93  A    between atoms: _234  and  _237
REMARK   94  A    between atoms: _237  and  _238
REMARK   95  A    between atoms: _241  and  _243
REMARK   96  A    between atoms: _243  and  _244
REMARK   97  A    between atoms: _243  and  _246
REMARK   98  A    between atoms: _249  and  _251
REMARK   99  A    between atoms: _251  and  _252
REMARK  100  A    between atoms: _251  and  _254
REMARK  101  A    between atoms: _257  and  _259
REMARK  102  A    between atoms: _259  and  _260
REMARK  103  A    between atoms: _259  and  _262
REMARK  104  A    between atoms: _262  and  _263
REMARK  105  A    between atoms: _266  and  _268
REMARK  106  A    between atoms: _268  and  _269
REMARK  107  A    between atoms: _268  and  _271
REMARK  108  A    between atoms: _271  and  _272
REMARK  109  A    between atoms: _275  and  _277
REMARK  110  A    between atoms: _277  and  _278
REMARK  111  A    between atoms: _277  and  _280
REMARK  112  A    between atoms: _283  and  _285
REMARK  113  A    between atoms: _285  and  _286
REMARK  114  A    between atoms: _285  and  _288
REMARK  115  A    between atoms: _288  and  _289
REMARK  116  A    between atoms: _295  and  _297
REMARK  117  A    between atoms: _297  and  _298
REMARK  118  A    between atoms: _297  and  _300
REMARK  119  A    between atoms: _300  and  _301
REMARK  120  A    between atoms: _307  and  _309
REMARK  121  A    between atoms: _309  and  _310
REMARK  122  A    between atoms: _312  and  _314
REMARK  123  A    between atoms: _314  and  _315
REMARK  124  A    between atoms: _314  and  _317
REMARK  125  A    between atoms: _317  and  _318
REMARK  126  A    between atoms: _318  and  _319
REMARK  127  A    between atoms: _322  and  _324
REMARK  128  A    between atoms: _324  and  _325
REMARK  129  A    between atoms: _324  and  _327
REMARK  130  A    between atoms: _327  and  _328
REMARK  131  A    between atoms: _328  and  _329
REMARK  132  A    between atoms: _329  and  _330
REMARK  133  A    between atoms: _330  and  _331
REMARK  134  A    between atoms: _335  and  _337
REMARK  135  A    between atoms: _337  and  _338
REMARK  136  A    between atoms: _337  and  _340
REMARK  137  A    between atoms: _340  and  _341
REMARK  138  A    between atoms: _344  and  _346
REMARK  139  A    between atoms: _346  and  _347
REMARK  140  A    between atoms: _346  and  _349
REMARK  141  A    between atoms: _349  and  _350
REMARK  142  A    between atoms: _350  and  _351
REMARK  143  A    between atoms: _356  and  _358
REMARK  144  A    between atoms: _358  and  _359
REMARK  145  A    between atoms: _358  and  _361
REMARK  146  A    between atoms: _361  and  _362
REMARK  147  A    between atoms: _365  and  _367
REMARK  148  A    between atoms: _367  and  _368
REMARK  149  A    between atoms: _367  and  _370
REMARK  150  A    between atoms: _370  and  _371
REMARK  151  A    between atoms: _374  and  _376
REMARK  152  A    between atoms: _376  and  _377
REMARK  153  A    between atoms: _379  and  _381
REMARK  154  A    between atoms: _381  and  _382
REMARK  155  A    between atoms: _381  and  _384
REMARK  156  A    between atoms: _388  and  _389
REMARK  157  A    between atoms: _394  and  _396
REMARK  158  A    between atoms: _396  and  _397
REMARK  159  A    between atoms: _396  and  _399
REMARK  160  A    between atoms: _399  and  _400
REMARK  161  A    between atoms: _403  and  _405
REMARK  162  A    between atoms: _405  and  _406
REMARK  163  A    between atoms: _405  and  _408
REMARK  164  A    between atoms: _411  and  _413
REMARK  165  A    between atoms: _413  and  _414
REMARK  166  A    between atoms: _413  and  _416
REMARK  167  A    between atoms: _416  and  _417
REMARK  168  A    between atoms: _417  and  _418
REMARK  169  A    between atoms: _418  and  _419
REMARK  170  A    between atoms: _428  and  _430
REMARK  171  A    between atoms: _430  and  _431
REMARK  172  A    between atoms: _430  and  _433
REMARK  173  A    between atoms: _433  and  _434
REMARK  174  A    between atoms: _437  and  _439
REMARK  175  A    between atoms: _439  and  _440
REMARK  176  A    between atoms: _443  and  _445
REMARK  177  A    between atoms: _445  and  _446
REMARK  178  A    between atoms: _445  and  _448
REMARK  179  A    between atoms: _448  and  _449
REMARK  180  A    between atoms: _449  and  _450
REMARK  181  A    between atoms: _452  and  _454
REMARK  182  A    between atoms: _454  and  _455
REMARK  183  A    between atoms: _454  and  _457
REMARK  184  A    between atoms: _457  and  _458
REMARK  185  A    between atoms: _460  and  _462
REMARK  186  A    between atoms: _462  and  _463
REMARK  187  A    between atoms: _462  and  _465
REMARK  188  A    between atoms: _465  and  _466
REMARK  189  A    between atoms: _468  and  _470
REMARK  190  A    between atoms: _470  and  _471
REMARK  191  A    between atoms: _470  and  _473
REMARK  192  A    between atoms: _473  and  _474
REMARK  193  A    between atoms: _474  and  _475
REMARK  194  A    between atoms: _475  and  _476
REMARK  195  A    between atoms: _485  and  _487
REMARK  196  A    between atoms: _487  and  _488
REMARK  197  A    between atoms: _487  and  _490
REMARK  198  A    between atoms: _490  and  _491
REMARK  199  A    between atoms: _496  and  _498
REMARK  200  A    between atoms: _498  and  _499
REMARK  201  A    between atoms: _498  and  _501
REMARK  202  A    between atoms: _501  and  _502
REMARK  203  A    between atoms: _502  and  _503
REMARK  204  A    between atoms: _503  and  _504
REMARK  205  A    between atoms: _513  and  _515
REMARK  206  A    between atoms: _515  and  _516
REMARK  207  A    between atoms: _515  and  _518
REMARK  208  A    between atoms: _518  and  _519
REMARK  209  A    between atoms: _519  and  _520
REMARK  210  A    between atoms: _520  and  _521
REMARK  211  A    between atoms: _530  and  _532
REMARK  212  A    between atoms: _532  and  _533
REMARK  213  A    between atoms: _532  and  _535
REMARK  214  A    between atoms: _535  and  _536
REMARK  215  A    between atoms: _539  and  _541
REMARK  216  A    between atoms: _541  and  _542
REMARK  217  A    between atoms: _541  and  _544
REMARK  218  A    between atoms: _544  and  _545
REMARK  219  A    between atoms: _548  and  _550
REMARK  220  A    between atoms: _550  and  _551
REMARK  221  A    between atoms: _550  and  _553
REMARK  222  A    between atoms: _553  and  _554
REMARK                            x       y       z     vdW  Elec       q    Type
REMARK                         _______ _______ _______ _____ _____    ______ ____
ROOT
ATOM      1  O   HOH     1       4.127   7.449  -7.272  0.00  0.00    +0.000 OA
ENDROOT
TORSDOF 0
