REMARK  Name = ../refined-set-2016/4nra/4nra_pocket.pdb
REMARK  86 active torsions:
REMARK  status: ('A' for Active; 'I' for Inactive)
REMARK    1  A    between atoms: _1  and  _3
REMARK    2  A    between atoms: _3  and  _4
REMARK    3  A    between atoms: _7  and  _9
REMARK    4  A    between atoms: _9  and  _10
REMARK    5  A    between atoms: _9  and  _12
REMARK    6  A    between atoms: _12  and  _13
REMARK    7  A    between atoms: _24  and  _25
REMARK    8  A    between atoms: _30  and  _32
REMARK    9  A    between atoms: _32  and  _33
REMARK   10  A    between atoms: _32  and  _35
REMARK   11  A    between atoms: _35  and  _36
REMARK   12  A    between atoms: _42  and  _44
REMARK   13  A    between atoms: _44  and  _45
REMARK   14  A    between atoms: _44  and  _47
REMARK   15  A    between atoms: _47  and  _48
REMARK   16  A    between atoms: _51  and  _53
REMARK   17  A    between atoms: _53  and  _54
REMARK   18  A    between atoms: _53  and  _56
REMARK   19  A    between atoms: _56  and  _57
REMARK   20  A    between atoms: _61  and  _62
REMARK   21  A    between atoms: _67  and  _69
REMARK   22  A    between atoms: _69  and  _70
REMARK   23  A    between atoms: _69  and  _72
REMARK   24  A    between atoms: _75  and  _77
REMARK   25  A    between atoms: _77  and  _78
REMARK   26  A    between atoms: _77  and  _80
REMARK   27  A    between atoms: _80  and  _81
REMARK   28  A    between atoms: _86  and  _88
REMARK   29  A    between atoms: _88  and  _89
REMARK   30  A    between atoms: _88  and  _91
REMARK   31  A    between atoms: _95  and  _96
REMARK   32  A    between atoms: _101  and  _103
REMARK   33  A    between atoms: _103  and  _104
REMARK   34  A    between atoms: _103  and  _106
REMARK   35  A    between atoms: _106  and  _107
REMARK   36  A    between atoms: _112  and  _113
REMARK   37  A    between atoms: _115  and  _117
REMARK   38  A    between atoms: _117  and  _118
REMARK   39  A    between atoms: _117  and  _120
REMARK   40  A    between atoms: _120  and  _121
REMARK   41  A    between atoms: _124  and  _126
REMARK   42  A    between atoms: _126  and  _127
REMARK   43  A    between atoms: _126  and  _129
REMARK   44  A    between atoms: _129  and  _130
REMARK   45  A    between atoms: _130  and  _131
REMARK   46  A    between atoms: _133  and  _135
REMARK   47  A    between atoms: _135  and  _136
REMARK   48  A    between atoms: _135  and  _138
REMARK   49  A    between atoms: _138  and  _139
REMARK   50  A    between atoms: _142  and  _144
REMARK   51  A    between atoms: _144  and  _145
REMARK   52  A    between atoms: _144  and  _147
REMARK   53  A    between atoms: _150  and  _152
REMARK   54  A    between atoms: _152  and  _153
REMARK   55  A    between atoms: _152  and  _155
REMARK   56  A    between atoms: _155  and  _156
REMARK   57  A    between atoms: _161  and  _163
REMARK   58  A    between atoms: _163  and  _164
REMARK   59  A    between atoms: _163  and  _166
REMARK   60  A    between atoms: _168  and  _170
REMARK   61  A    between atoms: _170  and  _171
REMARK   62  A    between atoms: _170  and  _173
REMARK   63  A    between atoms: _173  and  _174
REMARK   64  A    between atoms: _174  and  _175
REMARK   65  A    between atoms: _178  and  _180
REMARK   66  A    between atoms: _180  and  _181
REMARK   67  A    between atoms: _180  and  _183
REMARK   68  A    between atoms: _183  and  _184
REMARK   69  A    between atoms: _187  and  _189
REMARK   70  A    between atoms: _189  and  _190
REMARK   71  A    between atoms: _189  and  _192
REMARK   72  A    between atoms: _192  and  _193
REMARK   73  A    between atoms: _199  and  _201
REMARK   74  A    between atoms: _201  and  _202
REMARK   75  A    between atoms: _201  and  _204
REMARK   76  A    between atoms: _204  and  _205
REMARK   77  A    between atoms: _210  and  _212
REMARK   78  A    between atoms: _212  and  _213
REMARK   79  A    between atoms: _212  and  _215
REMARK   80  A    between atoms: _215  and  _216
REMARK   81  A    between atoms: _219  and  _221
REMARK   82  A    between atoms: _221  and  _222
REMARK   83  A    between atoms: _224  and  _226
REMARK   84  A    between atoms: _226  and  _227
REMARK   85  A    between atoms: _230  and  _232
REMARK   86  A    between atoms: _232  and  _233
REMARK                            x       y       z     vdW  Elec       q    Type
REMARK                         _______ _______ _______ _____ _____    ______ ____
ROOT
ATOM      1  C   PHE A   4      67.033  31.425   1.877  0.00  0.00    +0.241 C 
ATOM      2  O   PHE A   4      66.213  31.060   2.729  0.00  0.00    -0.273 OA
ATOM      3  N   LEU A   5      68.310  31.117   1.945  0.00  0.00    -0.297 N 
ATOM      4  H   LEU A   5      68.991  31.605   1.329  0.00  0.00    +0.150 HD
ENDROOT
BRANCH   1   5
ATOM      5  CA  PHE A   4      66.597  32.287   0.681  0.00  0.00    +0.153 C 
BRANCH   5   8
ATOM      6  C   PRO A   3      68.137  33.855  -0.461  0.00  0.00    +0.241 C 
ATOM      7  O   PRO A   3      67.836  34.852   0.214  0.00  0.00    -0.273 OA
ATOM      8  N   PHE A   4      67.698  32.609  -0.237  0.00  0.00    -0.297 N 
ATOM      9  H   PHE A   4      68.162  31.827  -0.741  0.00  0.00    +0.150 HD
BRANCH   6  13
ATOM     10  C   TRP A   2      70.421  32.209  -1.642  0.00  0.00    +0.244 C 
ATOM     11  O   TRP A   2      70.816  32.599  -0.540  0.00  0.00    -0.273 OA
ATOM     12  N   PRO A   3      69.453  32.851  -2.334  0.00  0.00    -0.272 N 
ATOM     13  CA  PRO A   3      68.972  34.073  -1.712  0.00  0.00    +0.152 C 
ATOM     14  CB  PRO A   3      68.069  34.713  -2.796  0.00  0.00    +0.031 C 
ATOM     15  CG  PRO A   3      68.446  34.069  -4.073  0.00  0.00    +0.024 C 
ATOM     16  CD  PRO A   3      68.836  32.671  -3.673  0.00  0.00    +0.094 C 
BRANCH  10  17
ATOM     17  CA  TRP A   2      71.003  30.911  -2.187  0.00  0.00    +0.153 C 
BRANCH  17  20
ATOM     18  C   ALA A   1      68.861  29.728  -2.361  0.00  0.00    +0.238 C 
ATOM     19  O   ALA A   1      68.432  30.173  -1.285  0.00  0.00    -0.274 OA
ATOM     20  N   TRP A   2      70.023  30.069  -2.905  0.00  0.00    -0.297 N 
ATOM     21  H   TRP A   2      70.250  29.734  -3.863  0.00  0.00    +0.150 HD
BRANCH  18  22
ATOM     22  CA  ALA A   1      68.024  28.683  -3.118  0.00  0.00    +0.145 C 
ATOM     23  CB  ALA A   1      68.005  27.388  -2.314  0.00  0.00    +0.028 C 
BRANCH  22  24
ATOM     24  N   ALA A   1      68.510  28.450  -4.486  0.00  0.00    -0.238 NA
ATOM     25  H   ALA A   1      69.135  27.639  -4.669  0.00  0.00    +0.142 HD
ENDBRANCH  22  24
ENDBRANCH  18  22
ENDBRANCH  17  20
BRANCH  17  26
ATOM     26  CB  TRP A   2      72.278  31.151  -2.988  0.00  0.00    +0.057 C 
BRANCH  26  27
ATOM     27  CG  TRP A   2      72.025  31.746  -4.279  0.00  0.00    -0.002 A 
ATOM     28  CD2 TRP A   2      71.921  33.138  -4.576  0.00  0.00    +0.013 A 
ATOM     29  CE3 TRP A   2      72.022  34.319  -3.809  0.00  0.00    +0.001 A 
ATOM     30  CZ3 TRP A   2      71.850  35.544  -4.442  0.00  0.00    +0.000 A 
ATOM     31  CH2 TRP A   2      71.570  35.614  -5.832  0.00  0.00    +0.001 A 
ATOM     32  CZ2 TRP A   2      71.475  34.475  -6.598  0.00  0.00    +0.017 A 
ATOM     33  CE2 TRP A   2      71.649  33.243  -5.958  0.00  0.00    +0.056 A 
ATOM     34  NE1 TRP A   2      71.588  31.966  -6.458  0.00  0.00    -0.352 N 
ATOM     35  HE1 TRP A   2      71.388  31.714  -7.447  0.00  0.00    +0.166 HD
ATOM     36  CD1 TRP A   2      71.832  31.080  -5.450  0.00  0.00    +0.068 A 
ENDBRANCH  26  27
ENDBRANCH  17  26
ENDBRANCH  10  17
ENDBRANCH   6  13
ENDBRANCH   5   8
BRANCH   5  37
ATOM     37  CB  PHE A   4      65.440  31.610  -0.072  0.00  0.00    +0.055 C 
BRANCH  37  38
ATOM     38  CG  PHE A   4      65.059  32.331  -1.347  0.00  0.00    -0.020 A 
ATOM     39  CD2 PHE A   4      64.570  33.635  -1.290  0.00  0.00    -0.004 A 
ATOM     40  CE2 PHE A   4      64.293  34.332  -2.424  0.00  0.00    -0.000 A 
ATOM     41  CZ  PHE A   4      64.482  33.731  -3.666  0.00  0.00    -0.000 A 
ATOM     42  CE1 PHE A   4      64.961  32.456  -3.737  0.00  0.00    -0.000 A 
ATOM     43  CD1 PHE A   4      65.249  31.750  -2.580  0.00  0.00    -0.004 A 
ENDBRANCH  37  38
ENDBRANCH   5  37
ENDBRANCH   1   5
BRANCH   3  44
ATOM     44  CA  LEU A   5      68.774  30.111   2.865  0.00  0.00    +0.149 C 
BRANCH  44  45
ATOM     45  C   LEU A   5      68.828  30.652   4.286  0.00  0.00    +0.241 C 
ATOM     46  O   LEU A   5      68.615  29.903   5.225  0.00  0.00    -0.273 OA
ATOM     47  N   LEU A   6      69.131  31.947   4.408  0.00  0.00    -0.297 N 
ATOM     48  H   LEU A   6      69.265  32.514   3.547  0.00  0.00    +0.150 HD
BRANCH  47  49
ATOM     49  CA  LEU A   6      69.281  32.593   5.704  0.00  0.00    +0.149 C 
BRANCH  49  50
ATOM     50  C   LEU A   6      68.420  33.849   5.755  0.00  0.00    +0.244 C 
ATOM     51  N   PRO A   7      68.078  34.313   6.961  0.00  0.00    -0.264 N 
ATOM     52  CD  PRO A   7      68.466  33.754   8.278  0.00  0.00    +0.120 C 
ATOM     53  CG  PRO A   7      67.878  34.707   9.287  0.00  0.00    -0.007 C 
ATOM     54  CB  PRO A   7      67.327  35.879   8.586  0.00  0.00    -0.000 C 
ATOM     55  CA  PRO A   7      67.375  35.582   7.072  0.00  0.00    +0.175 C 
ATOM     56  O   LEU A   6      68.088  34.410   4.699  0.00  0.00    -0.273 OA
BRANCH  55  57
ATOM     57  C   PRO A   7      68.153  36.706   6.384  0.00  0.00    +0.245 C 
ATOM     58  O   PRO A   7      69.394  36.733   6.425  0.00  0.00    -0.273 OA
ATOM     59  N   VAL A   8      67.423  37.562   5.683  0.00  0.00    -0.297 N 
ATOM     60  H   VAL A   8      66.422  37.351   5.496  0.00  0.00    +0.150 HD
BRANCH  59  61
ATOM     61  CA  VAL A   8      68.020  38.826   5.158  0.00  0.00    +0.149 C 
BRANCH  61  62
ATOM     62  C   VAL A   8      68.580  39.599   6.302  0.00  0.00    +0.241 C 
ATOM     63  O   VAL A   8      67.921  39.696   7.378  0.00  0.00    -0.273 OA
ATOM     64  N   ASN A   9      69.818  40.089   6.115  0.00  0.00    -0.298 N 
ATOM     65  H   ASN A   9      70.294  39.916   5.207  0.00  0.00    +0.150 HD
BRANCH  64  66
ATOM     66  CA  ASN A   9      70.507  40.843   7.125  0.00  0.00    +0.146 C 
BRANCH  66  67
ATOM     67  C   ASN A   9      69.920  42.268   7.129  0.00  0.00    +0.227 C 
ATOM     68  O   ASN A   9      70.152  43.048   6.228  0.00  0.00    -0.286 OA
ENDBRANCH  66  67
BRANCH  66  69
ATOM     69  CB  ASN A   9      72.030  40.878   6.882  0.00  0.00    +0.112 C 
BRANCH  69  70
ATOM     70  CG  ASN A   9      72.780  41.535   8.035  0.00  0.00    +0.222 C 
ATOM     71  OD1 ASN A   9      72.283  42.469   8.681  0.00  0.00    -0.275 OA
ATOM     72  ND2 ASN A   9      73.966  41.034   8.326  0.00  0.00    -0.329 N 
ATOM     73 HD21 ASN A   9      74.515  41.423   9.119  0.00  0.00    +0.145 HD
ATOM     74 HD22 ASN A   9      74.352  40.250   7.762  0.00  0.00    +0.145 HD
ENDBRANCH  69  70
ENDBRANCH  66  69
ENDBRANCH  64  66
ENDBRANCH  61  62
BRANCH  61  75
ATOM     75  CB  VAL A   8      66.962  39.674   4.453  0.00  0.00    +0.027 C 
ATOM     76  CG2 VAL A   8      67.540  41.037   4.005  0.00  0.00    +0.002 C 
ATOM     77  CG1 VAL A   8      66.404  38.921   3.268  0.00  0.00    +0.002 C 
ENDBRANCH  61  75
ENDBRANCH  59  61
ENDBRANCH  55  57
ENDBRANCH  49  50
BRANCH  49  78
ATOM     78  CB  LEU A   6      70.750  32.948   5.889  0.00  0.00    +0.029 C 
BRANCH  78  79
ATOM     79  CG  LEU A   6      71.815  31.830   6.017  0.00  0.00    +0.002 C 
ATOM     80  CD2 LEU A   6      71.544  30.902   7.183  0.00  0.00    +0.000 C 
ATOM     81  CD1 LEU A   6      73.228  32.422   6.174  0.00  0.00    +0.000 C 
ENDBRANCH  78  79
ENDBRANCH  49  78
ENDBRANCH  47  49
ENDBRANCH  44  45
BRANCH  44  82
ATOM     82  CB  LEU A   5      70.142  29.604   2.488  0.00  0.00    +0.029 C 
BRANCH  82  83
ATOM     83  CG  LEU A   5      70.170  28.758   1.209  0.00  0.00    +0.002 C 
ATOM     84  CD2 LEU A   5      69.259  27.521   1.393  0.00  0.00    +0.000 C 
ATOM     85  CD1 LEU A   5      71.586  28.389   0.821  0.00  0.00    +0.000 C 
ENDBRANCH  82  83
ENDBRANCH  44  82
ENDBRANCH   3  44
TORSDOF 27
REMARK  Name = ../refined-set-2016/4nra/4nra_pocket.pdb
REMARK  86 active torsions:
REMARK  status: ('A' for Active; 'I' for Inactive)
REMARK    1  A    between atoms: _1  and  _3
REMARK    2  A    between atoms: _3  and  _4
REMARK    3  A    between atoms: _7  and  _9
REMARK    4  A    between atoms: _9  and  _10
REMARK    5  A    between atoms: _9  and  _12
REMARK    6  A    between atoms: _12  and  _13
REMARK    7  A    between atoms: _24  and  _25
REMARK    8  A    between atoms: _30  and  _32
REMARK    9  A    between atoms: _32  and  _33
REMARK   10  A    between atoms: _32  and  _35
REMARK   11  A    between atoms: _35  and  _36
REMARK   12  A    between atoms: _42  and  _44
REMARK   13  A    between atoms: _44  and  _45
REMARK   14  A    between atoms: _44  and  _47
REMARK   15  A    between atoms: _47  and  _48
REMARK   16  A    between atoms: _51  and  _53
REMARK   17  A    between atoms: _53  and  _54
REMARK   18  A    between atoms: _53  and  _56
REMARK   19  A    between atoms: _56  and  _57
REMARK   20  A    between atoms: _61  and  _62
REMARK   21  A    between atoms: _67  and  _69
REMARK   22  A    between atoms: _69  and  _70
REMARK   23  A    between atoms: _69  and  _72
REMARK   24  A    between atoms: _75  and  _77
REMARK   25  A    between atoms: _77  and  _78
REMARK   26  A    between atoms: _77  and  _80
REMARK   27  A    between atoms: _80  and  _81
REMARK   28  A    between atoms: _86  and  _88
REMARK   29  A    between atoms: _88  and  _89
REMARK   30  A    between atoms: _88  and  _91
REMARK   31  A    between atoms: _95  and  _96
REMARK   32  A    between atoms: _101  and  _103
REMARK   33  A    between atoms: _103  and  _104
REMARK   34  A    between atoms: _103  and  _106
REMARK   35  A    between atoms: _106  and  _107
REMARK   36  A    between atoms: _112  and  _113
REMARK   37  A    between atoms: _115  and  _117
REMARK   38  A    between atoms: _117  and  _118
REMARK   39  A    between atoms: _117  and  _120
REMARK   40  A    between atoms: _120  and  _121
REMARK   41  A    between atoms: _124  and  _126
REMARK   42  A    between atoms: _126  and  _127
REMARK   43  A    between atoms: _126  and  _129
REMARK   44  A    between atoms: _129  and  _130
REMARK   45  A    between atoms: _130  and  _131
REMARK   46  A    between atoms: _133  and  _135
REMARK   47  A    between atoms: _135  and  _136
REMARK   48  A    between atoms: _135  and  _138
REMARK   49  A    between atoms: _138  and  _139
REMARK   50  A    between atoms: _142  and  _144
REMARK   51  A    between atoms: _144  and  _145
REMARK   52  A    between atoms: _144  and  _147
REMARK   53  A    between atoms: _150  and  _152
REMARK   54  A    between atoms: _152  and  _153
REMARK   55  A    between atoms: _152  and  _155
REMARK   56  A    between atoms: _155  and  _156
REMARK   57  A    between atoms: _161  and  _163
REMARK   58  A    between atoms: _163  and  _164
REMARK   59  A    between atoms: _163  and  _166
REMARK   60  A    between atoms: _168  and  _170
REMARK   61  A    between atoms: _170  and  _171
REMARK   62  A    between atoms: _170  and  _173
REMARK   63  A    between atoms: _173  and  _174
REMARK   64  A    between atoms: _174  and  _175
REMARK   65  A    between atoms: _178  and  _180
REMARK   66  A    between atoms: _180  and  _181
REMARK   67  A    between atoms: _180  and  _183
REMARK   68  A    between atoms: _183  and  _184
REMARK   69  A    between atoms: _187  and  _189
REMARK   70  A    between atoms: _189  and  _190
REMARK   71  A    between atoms: _189  and  _192
REMARK   72  A    between atoms: _192  and  _193
REMARK   73  A    between atoms: _199  and  _201
REMARK   74  A    between atoms: _201  and  _202
REMARK   75  A    between atoms: _201  and  _204
REMARK   76  A    between atoms: _204  and  _205
REMARK   77  A    between atoms: _210  and  _212
REMARK   78  A    between atoms: _212  and  _213
REMARK   79  A    between atoms: _212  and  _215
REMARK   80  A    between atoms: _215  and  _216
REMARK   81  A    between atoms: _219  and  _221
REMARK   82  A    between atoms: _221  and  _222
REMARK   83  A    between atoms: _224  and  _226
REMARK   84  A    between atoms: _226  and  _227
REMARK   85  A    between atoms: _230  and  _232
REMARK   86  A    between atoms: _232  and  _233
REMARK                            x       y       z     vdW  Elec       q    Type
REMARK                         _______ _______ _______ _____ _____    ______ ____
ROOT
ATOM      1  C   VAL A   1      69.029  46.770   3.729  0.00  0.00    +0.241 C 
ATOM      2  O   VAL A   1      67.969  46.577   4.315  0.00  0.00    -0.273 OA
ATOM      3  N   PRO A   2      69.395  47.977   3.262  0.00  0.00    -0.273 N 
ATOM      4  CA  PRO A   2      68.528  49.154   3.374  0.00  0.00    +0.140 C 
ATOM      5  CB  PRO A   2      69.273  50.250   2.540  0.00  0.00    +0.030 C 
ATOM      6  CG  PRO A   2      70.705  49.827   2.523  0.00  0.00    +0.024 C 
ATOM      7  CD  PRO A   2      70.713  48.309   2.666  0.00  0.00    +0.094 C 
ENDROOT
BRANCH   4   8
ATOM      8  C   PRO A   2      67.111  48.928   2.827  0.00  0.00    +0.227 C 
ATOM      9  O   PRO A   2      66.934  48.346   1.731  0.00  0.00    -0.286 OA
ENDBRANCH   4   8
BRANCH   1  10
ATOM     10  CA  VAL A   1      70.031  45.621   3.519  0.00  0.00    +0.145 C 
BRANCH  10  11
ATOM     11  CB  VAL A   1      69.300  44.346   3.102  0.00  0.00    +0.025 C 
ATOM     12  CG2 VAL A   1      70.310  43.197   2.920  0.00  0.00    +0.002 C 
ATOM     13  CG1 VAL A   1      68.496  44.578   1.831  0.00  0.00    +0.002 C 
ENDBRANCH  10  11
BRANCH  10  14
ATOM     14  N   VAL A   1      70.851  45.431   4.706  0.00  0.00    -0.238 NA
ATOM     15  H   VAL A   1      70.401  45.124   5.592  0.00  0.00    +0.142 HD
ENDBRANCH  10  14
ENDBRANCH   1  10
TORSDOF 4
REMARK  Name = ../refined-set-2016/4nra/4nra_pocket.pdb
REMARK  86 active torsions:
REMARK  status: ('A' for Active; 'I' for Inactive)
REMARK    1  A    between atoms: _1  and  _3
REMARK    2  A    between atoms: _3  and  _4
REMARK    3  A    between atoms: _7  and  _9
REMARK    4  A    between atoms: _9  and  _10
REMARK    5  A    between atoms: _9  and  _12
REMARK    6  A    between atoms: _12  and  _13
REMARK    7  A    between atoms: _24  and  _25
REMARK    8  A    between atoms: _30  and  _32
REMARK    9  A    between atoms: _32  and  _33
REMARK   10  A    between atoms: _32  and  _35
REMARK   11  A    between atoms: _35  and  _36
REMARK   12  A    between atoms: _42  and  _44
REMARK   13  A    between atoms: _44  and  _45
REMARK   14  A    between atoms: _44  and  _47
REMARK   15  A    between atoms: _47  and  _48
REMARK   16  A    between atoms: _51  and  _53
REMARK   17  A    between atoms: _53  and  _54
REMARK   18  A    between atoms: _53  and  _56
REMARK   19  A    between atoms: _56  and  _57
REMARK   20  A    between atoms: _61  and  _62
REMARK   21  A    between atoms: _67  and  _69
REMARK   22  A    between atoms: _69  and  _70
REMARK   23  A    between atoms: _69  and  _72
REMARK   24  A    between atoms: _75  and  _77
REMARK   25  A    between atoms: _77  and  _78
REMARK   26  A    between atoms: _77  and  _80
REMARK   27  A    between atoms: _80  and  _81
REMARK   28  A    between atoms: _86  and  _88
REMARK   29  A    between atoms: _88  and  _89
REMARK   30  A    between atoms: _88  and  _91
REMARK   31  A    between atoms: _95  and  _96
REMARK   32  A    between atoms: _101  and  _103
REMARK   33  A    between atoms: _103  and  _104
REMARK   34  A    between atoms: _103  and  _106
REMARK   35  A    between atoms: _106  and  _107
REMARK   36  A    between atoms: _112  and  _113
REMARK   37  A    between atoms: _115  and  _117
REMARK   38  A    between atoms: _117  and  _118
REMARK   39  A    between atoms: _117  and  _120
REMARK   40  A    between atoms: _120  and  _121
REMARK   41  A    between atoms: _124  and  _126
REMARK   42  A    between atoms: _126  and  _127
REMARK   43  A    between atoms: _126  and  _129
REMARK   44  A    between atoms: _129  and  _130
REMARK   45  A    between atoms: _130  and  _131
REMARK   46  A    between atoms: _133  and  _135
REMARK   47  A    between atoms: _135  and  _136
REMARK   48  A    between atoms: _135  and  _138
REMARK   49  A    between atoms: _138  and  _139
REMARK   50  A    between atoms: _142  and  _144
REMARK   51  A    between atoms: _144  and  _145
REMARK   52  A    between atoms: _144  and  _147
REMARK   53  A    between atoms: _150  and  _152
REMARK   54  A    between atoms: _152  and  _153
REMARK   55  A    between atoms: _152  and  _155
REMARK   56  A    between atoms: _155  and  _156
REMARK   57  A    between atoms: _161  and  _163
REMARK   58  A    between atoms: _163  and  _164
REMARK   59  A    between atoms: _163  and  _166
REMARK   60  A    between atoms: _168  and  _170
REMARK   61  A    between atoms: _170  and  _171
REMARK   62  A    between atoms: _170  and  _173
REMARK   63  A    between atoms: _173  and  _174
REMARK   64  A    between atoms: _174  and  _175
REMARK   65  A    between atoms: _178  and  _180
REMARK   66  A    between atoms: _180  and  _181
REMARK   67  A    between atoms: _180  and  _183
REMARK   68  A    between atoms: _183  and  _184
REMARK   69  A    between atoms: _187  and  _189
REMARK   70  A    between atoms: _189  and  _190
REMARK   71  A    between atoms: _189  and  _192
REMARK   72  A    between atoms: _192  and  _193
REMARK   73  A    between atoms: _199  and  _201
REMARK   74  A    between atoms: _201  and  _202
REMARK   75  A    between atoms: _201  and  _204
REMARK   76  A    between atoms: _204  and  _205
REMARK   77  A    between atoms: _210  and  _212
REMARK   78  A    between atoms: _212  and  _213
REMARK   79  A    between atoms: _212  and  _215
REMARK   80  A    between atoms: _215  and  _216
REMARK   81  A    between atoms: _219  and  _221
REMARK   82  A    between atoms: _221  and  _222
REMARK   83  A    between atoms: _224  and  _226
REMARK   84  A    between atoms: _226  and  _227
REMARK   85  A    between atoms: _230  and  _232
REMARK   86  A    between atoms: _232  and  _233
REMARK                            x       y       z     vdW  Elec       q    Type
REMARK                         _______ _______ _______ _____ _____    ______ ____
ROOT
ATOM      1  CG  TYR A   1      64.516  43.130   3.708  0.00  0.00    -0.020 A 
ATOM      2  CD2 TYR A   1      63.912  42.274   4.633  0.00  0.00    -0.001 A 
ATOM      3  CE2 TYR A   1      63.282  41.104   4.228  0.00  0.00    +0.036 A 
ATOM      4  CZ  TYR A   1      63.211  40.773   2.892  0.00  0.00    +0.134 A 
ATOM      5  CE1 TYR A   1      63.807  41.609   1.934  0.00  0.00    +0.036 A 
ATOM      6  CD1 TYR A   1      64.435  42.803   2.346  0.00  0.00    -0.001 A 
ENDROOT
BRANCH   4   7
ATOM      7  OH  TYR A   1      62.540  39.612   2.478  0.00  0.00    -0.506 OA
ATOM      8  HH  TYR A   1      62.591  39.537   1.492  0.00  0.00    +0.292 HD
ENDBRANCH   4   7
BRANCH   1   9
ATOM      9  CB  TYR A   1      65.171  44.403   4.153  0.00  0.00    +0.051 C 
BRANCH   9  10
ATOM     10  CA  TYR A   1      64.146  45.568   4.099  0.00  0.00    +0.137 C 
BRANCH  10  11
ATOM     11  N   TYR A   1      64.788  46.866   3.894  0.00  0.00    -0.239 NA
ATOM     12  H   TYR A   1      65.826  46.936   3.876  0.00  0.00    +0.142 HD
ENDBRANCH  10  11
BRANCH  10  13
ATOM     13  C   TYR A   1      63.286  45.525   5.348  0.00  0.00    +0.224 C 
ATOM     14  O   TYR A   1      62.131  45.045   5.316  0.00  0.00    -0.287 OA
ENDBRANCH  10  13
ENDBRANCH   9  10
ENDBRANCH   1   9
TORSDOF 5
REMARK  Name = ../refined-set-2016/4nra/4nra_pocket.pdb
REMARK  86 active torsions:
REMARK  status: ('A' for Active; 'I' for Inactive)
REMARK    1  A    between atoms: _1  and  _3
REMARK    2  A    between atoms: _3  and  _4
REMARK    3  A    between atoms: _7  and  _9
REMARK    4  A    between atoms: _9  and  _10
REMARK    5  A    between atoms: _9  and  _12
REMARK    6  A    between atoms: _12  and  _13
REMARK    7  A    between atoms: _24  and  _25
REMARK    8  A    between atoms: _30  and  _32
REMARK    9  A    between atoms: _32  and  _33
REMARK   10  A    between atoms: _32  and  _35
REMARK   11  A    between atoms: _35  and  _36
REMARK   12  A    between atoms: _42  and  _44
REMARK   13  A    between atoms: _44  and  _45
REMARK   14  A    between atoms: _44  and  _47
REMARK   15  A    between atoms: _47  and  _48
REMARK   16  A    between atoms: _51  and  _53
REMARK   17  A    between atoms: _53  and  _54
REMARK   18  A    between atoms: _53  and  _56
REMARK   19  A    between atoms: _56  and  _57
REMARK   20  A    between atoms: _61  and  _62
REMARK   21  A    between atoms: _67  and  _69
REMARK   22  A    between atoms: _69  and  _70
REMARK   23  A    between atoms: _69  and  _72
REMARK   24  A    between atoms: _75  and  _77
REMARK   25  A    between atoms: _77  and  _78
REMARK   26  A    between atoms: _77  and  _80
REMARK   27  A    between atoms: _80  and  _81
REMARK   28  A    between atoms: _86  and  _88
REMARK   29  A    between atoms: _88  and  _89
REMARK   30  A    between atoms: _88  and  _91
REMARK   31  A    between atoms: _95  and  _96
REMARK   32  A    between atoms: _101  and  _103
REMARK   33  A    between atoms: _103  and  _104
REMARK   34  A    between atoms: _103  and  _106
REMARK   35  A    between atoms: _106  and  _107
REMARK   36  A    between atoms: _112  and  _113
REMARK   37  A    between atoms: _115  and  _117
REMARK   38  A    between atoms: _117  and  _118
REMARK   39  A    between atoms: _117  and  _120
REMARK   40  A    between atoms: _120  and  _121
REMARK   41  A    between atoms: _124  and  _126
REMARK   42  A    between atoms: _126  and  _127
REMARK   43  A    between atoms: _126  and  _129
REMARK   44  A    between atoms: _129  and  _130
REMARK   45  A    between atoms: _130  and  _131
REMARK   46  A    between atoms: _133  and  _135
REMARK   47  A    between atoms: _135  and  _136
REMARK   48  A    between atoms: _135  and  _138
REMARK   49  A    between atoms: _138  and  _139
REMARK   50  A    between atoms: _142  and  _144
REMARK   51  A    between atoms: _144  and  _145
REMARK   52  A    between atoms: _144  and  _147
REMARK   53  A    between atoms: _150  and  _152
REMARK   54  A    between atoms: _152  and  _153
REMARK   55  A    between atoms: _152  and  _155
REMARK   56  A    between atoms: _155  and  _156
REMARK   57  A    between atoms: _161  and  _163
REMARK   58  A    between atoms: _163  and  _164
REMARK   59  A    between atoms: _163  and  _166
REMARK   60  A    between atoms: _168  and  _170
REMARK   61  A    between atoms: _170  and  _171
REMARK   62  A    between atoms: _170  and  _173
REMARK   63  A    between atoms: _173  and  _174
REMARK   64  A    between atoms: _174  and  _175
REMARK   65  A    between atoms: _178  and  _180
REMARK   66  A    between atoms: _180  and  _181
REMARK   67  A    between atoms: _180  and  _183
REMARK   68  A    between atoms: _183  and  _184
REMARK   69  A    between atoms: _187  and  _189
REMARK   70  A    between atoms: _189  and  _190
REMARK   71  A    between atoms: _189  and  _192
REMARK   72  A    between atoms: _192  and  _193
REMARK   73  A    between atoms: _199  and  _201
REMARK   74  A    between atoms: _201  and  _202
REMARK   75  A    between atoms: _201  and  _204
REMARK   76  A    between atoms: _204  and  _205
REMARK   77  A    between atoms: _210  and  _212
REMARK   78  A    between atoms: _212  and  _213
REMARK   79  A    between atoms: _212  and  _215
REMARK   80  A    between atoms: _215  and  _216
REMARK   81  A    between atoms: _219  and  _221
REMARK   82  A    between atoms: _221  and  _222
REMARK   83  A    between atoms: _224  and  _226
REMARK   84  A    between atoms: _226  and  _227
REMARK   85  A    between atoms: _230  and  _232
REMARK   86  A    between atoms: _232  and  _233
REMARK                            x       y       z     vdW  Elec       q    Type
REMARK                         _______ _______ _______ _____ _____    ______ ____
ROOT
ATOM      1  CA  ILE A   1      58.897  43.496   4.641  0.00  0.00    +0.133 C 
ENDROOT
BRANCH   1   2
ATOM      2  N   ILE A   1      59.322  44.923   4.572  0.00  0.00    -0.239 NA
ATOM      3  H   ILE A   1      60.278  45.188   4.884  0.00  0.00    +0.142 HD
ENDBRANCH   1   2
BRANCH   1   4
ATOM      4  C   ILE A   1      58.476  43.203   6.072  0.00  0.00    +0.224 C 
ATOM      5  O   ILE A   1      59.310  43.075   6.969  0.00  0.00    -0.287 OA
ENDBRANCH   1   4
BRANCH   1   6
ATOM      6  CB  ILE A   1      59.999  42.552   4.179  0.00  0.00    +0.023 C 
ATOM      7  CG2 ILE A   1      59.543  41.071   4.318  0.00  0.00    +0.002 C 
BRANCH   6   8
ATOM      8  CG1 ILE A   1      60.425  42.893   2.754  0.00  0.00    +0.002 C 
ATOM      9  CD1 ILE A   1      59.330  42.734   1.697  0.00  0.00    +0.000 C 
ENDBRANCH   6   8
ENDBRANCH   1   6
TORSDOF 4
REMARK  Name = ../refined-set-2016/4nra/4nra_pocket.pdb
REMARK  86 active torsions:
REMARK  status: ('A' for Active; 'I' for Inactive)
REMARK    1  A    between atoms: _1  and  _3
REMARK    2  A    between atoms: _3  and  _4
REMARK    3  A    between atoms: _7  and  _9
REMARK    4  A    between atoms: _9  and  _10
REMARK    5  A    between atoms: _9  and  _12
REMARK    6  A    between atoms: _12  and  _13
REMARK    7  A    between atoms: _24  and  _25
REMARK    8  A    between atoms: _30  and  _32
REMARK    9  A    between atoms: _32  and  _33
REMARK   10  A    between atoms: _32  and  _35
REMARK   11  A    between atoms: _35  and  _36
REMARK   12  A    between atoms: _42  and  _44
REMARK   13  A    between atoms: _44  and  _45
REMARK   14  A    between atoms: _44  and  _47
REMARK   15  A    between atoms: _47  and  _48
REMARK   16  A    between atoms: _51  and  _53
REMARK   17  A    between atoms: _53  and  _54
REMARK   18  A    between atoms: _53  and  _56
REMARK   19  A    between atoms: _56  and  _57
REMARK   20  A    between atoms: _61  and  _62
REMARK   21  A    between atoms: _67  and  _69
REMARK   22  A    between atoms: _69  and  _70
REMARK   23  A    between atoms: _69  and  _72
REMARK   24  A    between atoms: _75  and  _77
REMARK   25  A    between atoms: _77  and  _78
REMARK   26  A    between atoms: _77  and  _80
REMARK   27  A    between atoms: _80  and  _81
REMARK   28  A    between atoms: _86  and  _88
REMARK   29  A    between atoms: _88  and  _89
REMARK   30  A    between atoms: _88  and  _91
REMARK   31  A    between atoms: _95  and  _96
REMARK   32  A    between atoms: _101  and  _103
REMARK   33  A    between atoms: _103  and  _104
REMARK   34  A    between atoms: _103  and  _106
REMARK   35  A    between atoms: _106  and  _107
REMARK   36  A    between atoms: _112  and  _113
REMARK   37  A    between atoms: _115  and  _117
REMARK   38  A    between atoms: _117  and  _118
REMARK   39  A    between atoms: _117  and  _120
REMARK   40  A    between atoms: _120  and  _121
REMARK   41  A    between atoms: _124  and  _126
REMARK   42  A    between atoms: _126  and  _127
REMARK   43  A    between atoms: _126  and  _129
REMARK   44  A    between atoms: _129  and  _130
REMARK   45  A    between atoms: _130  and  _131
REMARK   46  A    between atoms: _133  and  _135
REMARK   47  A    between atoms: _135  and  _136
REMARK   48  A    between atoms: _135  and  _138
REMARK   49  A    between atoms: _138  and  _139
REMARK   50  A    between atoms: _142  and  _144
REMARK   51  A    between atoms: _144  and  _145
REMARK   52  A    between atoms: _144  and  _147
REMARK   53  A    between atoms: _150  and  _152
REMARK   54  A    between atoms: _152  and  _153
REMARK   55  A    between atoms: _152  and  _155
REMARK   56  A    between atoms: _155  and  _156
REMARK   57  A    between atoms: _161  and  _163
REMARK   58  A    between atoms: _163  and  _164
REMARK   59  A    between atoms: _163  and  _166
REMARK   60  A    between atoms: _168  and  _170
REMARK   61  A    between atoms: _170  and  _171
REMARK   62  A    between atoms: _170  and  _173
REMARK   63  A    between atoms: _173  and  _174
REMARK   64  A    between atoms: _174  and  _175
REMARK   65  A    between atoms: _178  and  _180
REMARK   66  A    between atoms: _180  and  _181
REMARK   67  A    between atoms: _180  and  _183
REMARK   68  A    between atoms: _183  and  _184
REMARK   69  A    between atoms: _187  and  _189
REMARK   70  A    between atoms: _189  and  _190
REMARK   71  A    between atoms: _189  and  _192
REMARK   72  A    between atoms: _192  and  _193
REMARK   73  A    between atoms: _199  and  _201
REMARK   74  A    between atoms: _201  and  _202
REMARK   75  A    between atoms: _201  and  _204
REMARK   76  A    between atoms: _204  and  _205
REMARK   77  A    between atoms: _210  and  _212
REMARK   78  A    between atoms: _212  and  _213
REMARK   79  A    between atoms: _212  and  _215
REMARK   80  A    between atoms: _215  and  _216
REMARK   81  A    between atoms: _219  and  _221
REMARK   82  A    between atoms: _221  and  _222
REMARK   83  A    between atoms: _224  and  _226
REMARK   84  A    between atoms: _226  and  _227
REMARK   85  A    between atoms: _230  and  _232
REMARK   86  A    between atoms: _232  and  _233
REMARK                            x       y       z     vdW  Elec       q    Type
REMARK                         _______ _______ _______ _____ _____    ______ ____
ROOT
ATOM      1  C   MET A   1      62.032  33.928   5.316  0.00  0.00    +0.238 C 
ATOM      2  N   ASP A   2      62.629  32.805   5.711  0.00  0.00    -0.298 N 
ATOM      3  H   ASP A   2      62.286  32.352   6.582  0.00  0.00    +0.150 HD
ATOM      4  O   MET A   1      62.339  34.559   4.279  0.00  0.00    -0.274 OA
ENDROOT
BRANCH   1   5
ATOM      5  CA  MET A   1      60.918  34.438   6.232  0.00  0.00    +0.146 C 
BRANCH   5   6
ATOM      6  N   MET A   1      60.857  35.915   6.132  0.00  0.00    -0.238 NA
ATOM      7  H   MET A   1      61.125  36.372   5.237  0.00  0.00    +0.142 HD
ENDBRANCH   5   6
BRANCH   5   8
ATOM      8  CB  MET A   1      59.531  33.834   5.936  0.00  0.00    +0.038 C 
BRANCH   8   9
ATOM      9  CG  MET A   1      59.393  32.328   6.233  0.00  0.00    +0.060 C 
BRANCH   9  10
ATOM     10  SD  MET A   1      59.931  31.854   7.922  0.00  0.00    -0.139 S 
ATOM     11  CE  MET A   1      58.911  32.933   8.906  0.00  0.00    +0.069 C 
ENDBRANCH   9  10
ENDBRANCH   8   9
ENDBRANCH   5   8
ENDBRANCH   1   5
BRANCH   2  12
ATOM     12  CA  ASP A   2      63.723  32.176   5.006  0.00  0.00    +0.148 C 
BRANCH  12  13
ATOM     13  C   ASP A   2      63.699  30.681   5.310  0.00  0.00    +0.227 C 
ATOM     14  O   ASP A   2      63.094  30.243   6.311  0.00  0.00    -0.286 OA
ENDBRANCH  12  13
BRANCH  12  15
ATOM     15  CB  ASP A   2      65.055  32.765   5.397  0.00  0.00    +0.142 C 
BRANCH  15  16
ATOM     16  CG  ASP A   2      65.444  32.409   6.807  0.00  0.00    +0.367 C 
ATOM     17  OD2 ASP A   2      64.902  33.046   7.715  0.00  0.00    -0.246 OA
ATOM     18  OD1 ASP A   2      66.273  31.524   6.962  0.00  0.00    -0.246 OA
ENDBRANCH  15  16
ENDBRANCH  12  15
ENDBRANCH   2  12
TORSDOF 9
REMARK  Name = ../refined-set-2016/4nra/4nra_pocket.pdb
REMARK  86 active torsions:
REMARK  status: ('A' for Active; 'I' for Inactive)
REMARK    1  A    between atoms: _1  and  _3
REMARK    2  A    between atoms: _3  and  _4
REMARK    3  A    between atoms: _7  and  _9
REMARK    4  A    between atoms: _9  and  _10
REMARK    5  A    between atoms: _9  and  _12
REMARK    6  A    between atoms: _12  and  _13
REMARK    7  A    between atoms: _24  and  _25
REMARK    8  A    between atoms: _30  and  _32
REMARK    9  A    between atoms: _32  and  _33
REMARK   10  A    between atoms: _32  and  _35
REMARK   11  A    between atoms: _35  and  _36
REMARK   12  A    between atoms: _42  and  _44
REMARK   13  A    between atoms: _44  and  _45
REMARK   14  A    between atoms: _44  and  _47
REMARK   15  A    between atoms: _47  and  _48
REMARK   16  A    between atoms: _51  and  _53
REMARK   17  A    between atoms: _53  and  _54
REMARK   18  A    between atoms: _53  and  _56
REMARK   19  A    between atoms: _56  and  _57
REMARK   20  A    between atoms: _61  and  _62
REMARK   21  A    between atoms: _67  and  _69
REMARK   22  A    between atoms: _69  and  _70
REMARK   23  A    between atoms: _69  and  _72
REMARK   24  A    between atoms: _75  and  _77
REMARK   25  A    between atoms: _77  and  _78
REMARK   26  A    between atoms: _77  and  _80
REMARK   27  A    between atoms: _80  and  _81
REMARK   28  A    between atoms: _86  and  _88
REMARK   29  A    between atoms: _88  and  _89
REMARK   30  A    between atoms: _88  and  _91
REMARK   31  A    between atoms: _95  and  _96
REMARK   32  A    between atoms: _101  and  _103
REMARK   33  A    between atoms: _103  and  _104
REMARK   34  A    between atoms: _103  and  _106
REMARK   35  A    between atoms: _106  and  _107
REMARK   36  A    between atoms: _112  and  _113
REMARK   37  A    between atoms: _115  and  _117
REMARK   38  A    between atoms: _117  and  _118
REMARK   39  A    between atoms: _117  and  _120
REMARK   40  A    between atoms: _120  and  _121
REMARK   41  A    between atoms: _124  and  _126
REMARK   42  A    between atoms: _126  and  _127
REMARK   43  A    between atoms: _126  and  _129
REMARK   44  A    between atoms: _129  and  _130
REMARK   45  A    between atoms: _130  and  _131
REMARK   46  A    between atoms: _133  and  _135
REMARK   47  A    between atoms: _135  and  _136
REMARK   48  A    between atoms: _135  and  _138
REMARK   49  A    between atoms: _138  and  _139
REMARK   50  A    between atoms: _142  and  _144
REMARK   51  A    between atoms: _144  and  _145
REMARK   52  A    between atoms: _144  and  _147
REMARK   53  A    between atoms: _150  and  _152
REMARK   54  A    between atoms: _152  and  _153
REMARK   55  A    between atoms: _152  and  _155
REMARK   56  A    between atoms: _155  and  _156
REMARK   57  A    between atoms: _161  and  _163
REMARK   58  A    between atoms: _163  and  _164
REMARK   59  A    between atoms: _163  and  _166
REMARK   60  A    between atoms: _168  and  _170
REMARK   61  A    between atoms: _170  and  _171
REMARK   62  A    between atoms: _170  and  _173
REMARK   63  A    between atoms: _173  and  _174
REMARK   64  A    between atoms: _174  and  _175
REMARK   65  A    between atoms: _178  and  _180
REMARK   66  A    between atoms: _180  and  _181
REMARK   67  A    between atoms: _180  and  _183
REMARK   68  A    between atoms: _183  and  _184
REMARK   69  A    between atoms: _187  and  _189
REMARK   70  A    between atoms: _189  and  _190
REMARK   71  A    between atoms: _189  and  _192
REMARK   72  A    between atoms: _192  and  _193
REMARK   73  A    between atoms: _199  and  _201
REMARK   74  A    between atoms: _201  and  _202
REMARK   75  A    between atoms: _201  and  _204
REMARK   76  A    between atoms: _204  and  _205
REMARK   77  A    between atoms: _210  and  _212
REMARK   78  A    between atoms: _212  and  _213
REMARK   79  A    between atoms: _212  and  _215
REMARK   80  A    between atoms: _215  and  _216
REMARK   81  A    between atoms: _219  and  _221
REMARK   82  A    between atoms: _221  and  _222
REMARK   83  A    between atoms: _224  and  _226
REMARK   84  A    between atoms: _226  and  _227
REMARK   85  A    between atoms: _230  and  _232
REMARK   86  A    between atoms: _232  and  _233
REMARK                            x       y       z     vdW  Elec       q    Type
REMARK                         _______ _______ _______ _____ _____    ______ ____
ROOT
ATOM      1  CA  VAL A   1      59.503  33.632   1.293  0.00  0.00    +0.133 C 
ENDROOT
BRANCH   1   2
ATOM      2  CB  VAL A   1      60.376  32.341   1.277  0.00  0.00    +0.023 C 
ATOM      3  CG2 VAL A   1      60.586  31.782   2.681  0.00  0.00    +0.002 C 
ATOM      4  CG1 VAL A   1      61.745  32.648   0.665  0.00  0.00    +0.002 C 
ENDBRANCH   1   2
BRANCH   1   5
ATOM      5  N   VAL A   1      58.152  33.407   1.820  0.00  0.00    -0.239 NA
ATOM      6  H   VAL A   1      57.896  32.468   2.187  0.00  0.00    +0.142 HD
ENDBRANCH   1   5
BRANCH   1   7
ATOM      7  C   VAL A   1      59.422  34.210  -0.125  0.00  0.00    +0.224 C 
ATOM      8  O   VAL A   1      60.059  35.228  -0.445  0.00  0.00    -0.287 OA
ENDBRANCH   1   7
TORSDOF 3
REMARK  Name = ../refined-set-2016/4nra/4nra_pocket.pdb
REMARK  86 active torsions:
REMARK  status: ('A' for Active; 'I' for Inactive)
REMARK    1  A    between atoms: _1  and  _3
REMARK    2  A    between atoms: _3  and  _4
REMARK    3  A    between atoms: _7  and  _9
REMARK    4  A    between atoms: _9  and  _10
REMARK    5  A    between atoms: _9  and  _12
REMARK    6  A    between atoms: _12  and  _13
REMARK    7  A    between atoms: _24  and  _25
REMARK    8  A    between atoms: _30  and  _32
REMARK    9  A    between atoms: _32  and  _33
REMARK   10  A    between atoms: _32  and  _35
REMARK   11  A    between atoms: _35  and  _36
REMARK   12  A    between atoms: _42  and  _44
REMARK   13  A    between atoms: _44  and  _45
REMARK   14  A    between atoms: _44  and  _47
REMARK   15  A    between atoms: _47  and  _48
REMARK   16  A    between atoms: _51  and  _53
REMARK   17  A    between atoms: _53  and  _54
REMARK   18  A    between atoms: _53  and  _56
REMARK   19  A    between atoms: _56  and  _57
REMARK   20  A    between atoms: _61  and  _62
REMARK   21  A    between atoms: _67  and  _69
REMARK   22  A    between atoms: _69  and  _70
REMARK   23  A    between atoms: _69  and  _72
REMARK   24  A    between atoms: _75  and  _77
REMARK   25  A    between atoms: _77  and  _78
REMARK   26  A    between atoms: _77  and  _80
REMARK   27  A    between atoms: _80  and  _81
REMARK   28  A    between atoms: _86  and  _88
REMARK   29  A    between atoms: _88  and  _89
REMARK   30  A    between atoms: _88  and  _91
REMARK   31  A    between atoms: _95  and  _96
REMARK   32  A    between atoms: _101  and  _103
REMARK   33  A    between atoms: _103  and  _104
REMARK   34  A    between atoms: _103  and  _106
REMARK   35  A    between atoms: _106  and  _107
REMARK   36  A    between atoms: _112  and  _113
REMARK   37  A    between atoms: _115  and  _117
REMARK   38  A    between atoms: _117  and  _118
REMARK   39  A    between atoms: _117  and  _120
REMARK   40  A    between atoms: _120  and  _121
REMARK   41  A    between atoms: _124  and  _126
REMARK   42  A    between atoms: _126  and  _127
REMARK   43  A    between atoms: _126  and  _129
REMARK   44  A    between atoms: _129  and  _130
REMARK   45  A    between atoms: _130  and  _131
REMARK   46  A    between atoms: _133  and  _135
REMARK   47  A    between atoms: _135  and  _136
REMARK   48  A    between atoms: _135  and  _138
REMARK   49  A    between atoms: _138  and  _139
REMARK   50  A    between atoms: _142  and  _144
REMARK   51  A    between atoms: _144  and  _145
REMARK   52  A    between atoms: _144  and  _147
REMARK   53  A    between atoms: _150  and  _152
REMARK   54  A    between atoms: _152  and  _153
REMARK   55  A    between atoms: _152  and  _155
REMARK   56  A    between atoms: _155  and  _156
REMARK   57  A    between atoms: _161  and  _163
REMARK   58  A    between atoms: _163  and  _164
REMARK   59  A    between atoms: _163  and  _166
REMARK   60  A    between atoms: _168  and  _170
REMARK   61  A    between atoms: _170  and  _171
REMARK   62  A    between atoms: _170  and  _173
REMARK   63  A    between atoms: _173  and  _174
REMARK   64  A    between atoms: _174  and  _175
REMARK   65  A    between atoms: _178  and  _180
REMARK   66  A    between atoms: _180  and  _181
REMARK   67  A    between atoms: _180  and  _183
REMARK   68  A    between atoms: _183  and  _184
REMARK   69  A    between atoms: _187  and  _189
REMARK   70  A    between atoms: _189  and  _190
REMARK   71  A    between atoms: _189  and  _192
REMARK   72  A    between atoms: _192  and  _193
REMARK   73  A    between atoms: _199  and  _201
REMARK   74  A    between atoms: _201  and  _202
REMARK   75  A    between atoms: _201  and  _204
REMARK   76  A    between atoms: _204  and  _205
REMARK   77  A    between atoms: _210  and  _212
REMARK   78  A    between atoms: _212  and  _213
REMARK   79  A    between atoms: _212  and  _215
REMARK   80  A    between atoms: _215  and  _216
REMARK   81  A    between atoms: _219  and  _221
REMARK   82  A    between atoms: _221  and  _222
REMARK   83  A    between atoms: _224  and  _226
REMARK   84  A    between atoms: _226  and  _227
REMARK   85  A    between atoms: _230  and  _232
REMARK   86  A    between atoms: _232  and  _233
REMARK                            x       y       z     vdW  Elec       q    Type
REMARK                         _______ _______ _______ _____ _____    ______ ____
ROOT
ATOM      1  C   GLU A   3      58.316  41.067  -4.840  0.00  0.00    +0.241 C 
ATOM      2  N   THR A   4      57.987  41.291  -3.583  0.00  0.00    -0.295 N 
ATOM      3  H   THR A   4      57.858  40.481  -2.944  0.00  0.00    +0.150 HD
ATOM      4  O   GLU A   3      58.352  41.942  -5.697  0.00  0.00    -0.273 OA
ENDROOT
BRANCH   2   5
ATOM      5  CA  THR A   4      57.800  42.623  -3.067  0.00  0.00    +0.176 C 
BRANCH   5   6
ATOM      6  C   THR A   4      59.094  43.468  -3.146  0.00  0.00    +0.243 C 
ATOM      7  N   PHE A   5      60.252  42.835  -2.974  0.00  0.00    -0.297 N 
ATOM      8  H   PHE A   5      60.260  41.796  -2.934  0.00  0.00    +0.150 HD
ATOM      9  O   THR A   4      59.031  44.652  -3.415  0.00  0.00    -0.273 OA
BRANCH   7  10
ATOM     10  CA  PHE A   5      61.490  43.550  -2.842  0.00  0.00    +0.153 C 
BRANCH  10  11
ATOM     11  C   PHE A   5      62.410  43.549  -4.029  0.00  0.00    +0.241 C 
ATOM     12  O   PHE A   5      63.377  44.357  -4.080  0.00  0.00    -0.273 OA
ATOM     13  N   ASN A   6      62.140  42.682  -5.002  0.00  0.00    -0.298 N 
ATOM     14  H   ASN A   6      61.229  42.180  -5.012  0.00  0.00    +0.150 HD
BRANCH  13  15
ATOM     15  CA  ASN A   6      63.115  42.437  -6.049  0.00  0.00    +0.146 C 
BRANCH  15  16
ATOM     16  C   ASN A   6      62.409  42.548  -7.406  0.00  0.00    +0.227 C 
ATOM     17  O   ASN A   6      61.252  42.140  -7.523  0.00  0.00    -0.286 OA
ENDBRANCH  15  16
BRANCH  15  18
ATOM     18  CB  ASN A   6      63.704  41.053  -5.930  0.00  0.00    +0.112 C 
BRANCH  18  19
ATOM     19  CG  ASN A   6      64.595  40.882  -4.726  0.00  0.00    +0.222 C 
ATOM     20  ND2 ASN A   6      64.041  40.340  -3.654  0.00  0.00    -0.329 N 
ATOM     21 HD21 ASN A   6      64.617  40.157  -2.807  0.00  0.00    +0.145 HD
ATOM     22 HD22 ASN A   6      63.030  40.097  -3.658  0.00  0.00    +0.145 HD
ATOM     23  OD1 ASN A   6      65.773  41.186  -4.777  0.00  0.00    -0.275 OA
ENDBRANCH  18  19
ENDBRANCH  15  18
ENDBRANCH  13  15
ENDBRANCH  10  11
BRANCH  10  24
ATOM     24  CB  PHE A   5      62.244  43.034  -1.600  0.00  0.00    +0.055 C 
BRANCH  24  25
ATOM     25  CG  PHE A   5      63.203  44.070  -0.976  0.00  0.00    -0.020 A 
ATOM     26  CD2 PHE A   5      62.720  45.071  -0.143  0.00  0.00    -0.004 A 
ATOM     27  CE2 PHE A   5      63.561  45.995   0.442  0.00  0.00    -0.000 A 
ATOM     28  CZ  PHE A   5      64.918  45.911   0.221  0.00  0.00    -0.000 A 
ATOM     29  CE1 PHE A   5      65.424  44.908  -0.602  0.00  0.00    -0.000 A 
ATOM     30  CD1 PHE A   5      64.571  43.989  -1.173  0.00  0.00    -0.004 A 
ENDBRANCH  24  25
ENDBRANCH  10  24
ENDBRANCH   7  10
ENDBRANCH   5   6
BRANCH   5  31
ATOM     31  CB  THR A   4      57.253  42.606  -1.619  0.00  0.00    +0.137 C 
ATOM     32  CG2 THR A   4      57.074  44.046  -1.106  0.00  0.00    +0.034 C 
BRANCH  31  33
ATOM     33  OG1 THR A   4      55.959  42.016  -1.630  0.00  0.00    -0.382 OA
ATOM     34  HG1 THR A   4      56.022  41.091  -1.978  0.00  0.00    +0.210 HD
ENDBRANCH  31  33
ENDBRANCH   5  31
ENDBRANCH   2   5
BRANCH   1  35
ATOM     35  CA  GLU A   3      58.566  39.622  -5.226  0.00  0.00    +0.149 C 
BRANCH  35  37
ATOM     36  C   CYS A   2      60.482  39.067  -3.838  0.00  0.00    +0.242 C 
ATOM     37  N   GLU A   3      59.217  38.818  -4.195  0.00  0.00    -0.297 N 
ATOM     38  H   GLU A   3      58.693  38.046  -3.735  0.00  0.00    +0.150 HD
ATOM     39  O   CYS A   2      61.155  39.961  -4.371  0.00  0.00    -0.273 OA
BRANCH  36  40
ATOM     40  CA  CYS A   2      61.073  38.220  -2.696  0.00  0.00    +0.160 C 
BRANCH  40  43
ATOM     41  C   ASN A   1      59.561  39.085  -1.038  0.00  0.00    +0.239 C 
ATOM     42  O   ASN A   1      59.872  40.248  -1.317  0.00  0.00    -0.274 OA
ATOM     43  N   CYS A   2      60.045  38.039  -1.691  0.00  0.00    -0.296 N 
ATOM     44  H   CYS A   2      59.686  37.086  -1.482  0.00  0.00    +0.150 HD
BRANCH  41  45
ATOM     45  CA  ASN A   1      58.580  38.784   0.070  0.00  0.00    +0.154 C 
BRANCH  45  46
ATOM     46  N   ASN A   1      57.632  37.764  -0.319  0.00  0.00    -0.238 NA
ATOM     47  H   ASN A   1      57.578  36.879   0.225  0.00  0.00    +0.142 HD
ENDBRANCH  45  46
BRANCH  45  48
ATOM     48  CB  ASN A   1      59.360  38.380   1.319  0.00  0.00    +0.111 C 
BRANCH  48  49
ATOM     49  CG  ASN A   1      58.478  38.356   2.575  0.00  0.00    +0.221 C 
ATOM     50  ND2 ASN A   1      58.989  37.744   3.631  0.00  0.00    -0.329 N 
ATOM     51 HD21 ASN A   1      58.445  37.693   4.516  0.00  0.00    +0.145 HD
ATOM     52 HD22 ASN A   1      59.934  37.314   3.576  0.00  0.00    +0.145 HD
ATOM     53  OD1 ASN A   1      57.350  38.890   2.582  0.00  0.00    -0.275 OA
ENDBRANCH  48  49
ENDBRANCH  45  48
ENDBRANCH  41  45
ENDBRANCH  40  43
BRANCH  40  54
ATOM     54  CB  CYS A   2      61.547  36.864  -3.189  0.00  0.00    +0.098 C 
ATOM     55  SG  CYS A   2      62.714  36.898  -4.567  0.00  0.00    -0.080 S 
ENDBRANCH  40  54
ENDBRANCH  36  40
ENDBRANCH  35  37
BRANCH  35  56
ATOM     56  CB  GLU A   3      57.226  39.044  -5.654  0.00  0.00    +0.041 C 
BRANCH  56  57
ATOM     57  CG  GLU A   3      57.376  37.840  -6.527  0.00  0.00    +0.116 C 
BRANCH  57  58
ATOM     58  CD  GLU A   3      56.105  37.499  -7.276  0.00  0.00    +0.365 C 
ATOM     59  OE2 GLU A   3      55.699  36.312  -7.238  0.00  0.00    -0.246 OA
ATOM     60  OE1 GLU A   3      55.563  38.406  -7.935  0.00  0.00    -0.246 OA
ENDBRANCH  57  58
ENDBRANCH  56  57
ENDBRANCH  35  56
ENDBRANCH   1  35
TORSDOF 24
REMARK  Name = ../refined-set-2016/4nra/4nra_pocket.pdb
REMARK  86 active torsions:
REMARK  status: ('A' for Active; 'I' for Inactive)
REMARK    1  A    between atoms: _1  and  _3
REMARK    2  A    between atoms: _3  and  _4
REMARK    3  A    between atoms: _7  and  _9
REMARK    4  A    between atoms: _9  and  _10
REMARK    5  A    between atoms: _9  and  _12
REMARK    6  A    between atoms: _12  and  _13
REMARK    7  A    between atoms: _24  and  _25
REMARK    8  A    between atoms: _30  and  _32
REMARK    9  A    between atoms: _32  and  _33
REMARK   10  A    between atoms: _32  and  _35
REMARK   11  A    between atoms: _35  and  _36
REMARK   12  A    between atoms: _42  and  _44
REMARK   13  A    between atoms: _44  and  _45
REMARK   14  A    between atoms: _44  and  _47
REMARK   15  A    between atoms: _47  and  _48
REMARK   16  A    between atoms: _51  and  _53
REMARK   17  A    between atoms: _53  and  _54
REMARK   18  A    between atoms: _53  and  _56
REMARK   19  A    between atoms: _56  and  _57
REMARK   20  A    between atoms: _61  and  _62
REMARK   21  A    between atoms: _67  and  _69
REMARK   22  A    between atoms: _69  and  _70
REMARK   23  A    between atoms: _69  and  _72
REMARK   24  A    between atoms: _75  and  _77
REMARK   25  A    between atoms: _77  and  _78
REMARK   26  A    between atoms: _77  and  _80
REMARK   27  A    between atoms: _80  and  _81
REMARK   28  A    between atoms: _86  and  _88
REMARK   29  A    between atoms: _88  and  _89
REMARK   30  A    between atoms: _88  and  _91
REMARK   31  A    between atoms: _95  and  _96
REMARK   32  A    between atoms: _101  and  _103
REMARK   33  A    between atoms: _103  and  _104
REMARK   34  A    between atoms: _103  and  _106
REMARK   35  A    between atoms: _106  and  _107
REMARK   36  A    between atoms: _112  and  _113
REMARK   37  A    between atoms: _115  and  _117
REMARK   38  A    between atoms: _117  and  _118
REMARK   39  A    between atoms: _117  and  _120
REMARK   40  A    between atoms: _120  and  _121
REMARK   41  A    between atoms: _124  and  _126
REMARK   42  A    between atoms: _126  and  _127
REMARK   43  A    between atoms: _126  and  _129
REMARK   44  A    between atoms: _129  and  _130
REMARK   45  A    between atoms: _130  and  _131
REMARK   46  A    between atoms: _133  and  _135
REMARK   47  A    between atoms: _135  and  _136
REMARK   48  A    between atoms: _135  and  _138
REMARK   49  A    between atoms: _138  and  _139
REMARK   50  A    between atoms: _142  and  _144
REMARK   51  A    between atoms: _144  and  _145
REMARK   52  A    between atoms: _144  and  _147
REMARK   53  A    between atoms: _150  and  _152
REMARK   54  A    between atoms: _152  and  _153
REMARK   55  A    between atoms: _152  and  _155
REMARK   56  A    between atoms: _155  and  _156
REMARK   57  A    between atoms: _161  and  _163
REMARK   58  A    between atoms: _163  and  _164
REMARK   59  A    between atoms: _163  and  _166
REMARK   60  A    between atoms: _168  and  _170
REMARK   61  A    between atoms: _170  and  _171
REMARK   62  A    between atoms: _170  and  _173
REMARK   63  A    between atoms: _173  and  _174
REMARK   64  A    between atoms: _174  and  _175
REMARK   65  A    between atoms: _178  and  _180
REMARK   66  A    between atoms: _180  and  _181
REMARK   67  A    between atoms: _180  and  _183
REMARK   68  A    between atoms: _183  and  _184
REMARK   69  A    between atoms: _187  and  _189
REMARK   70  A    between atoms: _189  and  _190
REMARK   71  A    between atoms: _189  and  _192
REMARK   72  A    between atoms: _192  and  _193
REMARK   73  A    between atoms: _199  and  _201
REMARK   74  A    between atoms: _201  and  _202
REMARK   75  A    between atoms: _201  and  _204
REMARK   76  A    between atoms: _204  and  _205
REMARK   77  A    between atoms: _210  and  _212
REMARK   78  A    between atoms: _212  and  _213
REMARK   79  A    between atoms: _212  and  _215
REMARK   80  A    between atoms: _215  and  _216
REMARK   81  A    between atoms: _219  and  _221
REMARK   82  A    between atoms: _221  and  _222
REMARK   83  A    between atoms: _224  and  _226
REMARK   84  A    between atoms: _226  and  _227
REMARK   85  A    between atoms: _230  and  _232
REMARK   86  A    between atoms: _232  and  _233
REMARK                            x       y       z     vdW  Elec       q    Type
REMARK                         _______ _______ _______ _____ _____    ______ ____
ROOT
ATOM      1  CA  ILE A   1      67.084  37.154  -7.142  0.00  0.00    +0.145 C 
ENDROOT
BRANCH   1   2
ATOM      2  C   ILE A   1      65.601  37.059  -7.472  0.00  0.00    +0.238 C 
ATOM      3  O   ILE A   1      64.940  36.143  -6.972  0.00  0.00    -0.274 OA
ATOM      4  N   GLY A   2      65.086  37.976  -8.292  0.00  0.00    -0.297 N 
ATOM      5  H   GLY A   2      65.709  38.732  -8.642  0.00  0.00    +0.150 HD
BRANCH   4   6
ATOM      6  CA  GLY A   2      63.676  37.971  -8.728  0.00  0.00    +0.163 C 
BRANCH   6   7
ATOM      7  C   GLY A   2      63.371  36.699  -9.546  0.00  0.00    +0.229 C 
ATOM      8  O   GLY A   2      62.377  36.009  -9.284  0.00  0.00    -0.286 OA
ENDBRANCH   6   7
ENDBRANCH   4   6
ENDBRANCH   1   2
BRANCH   1   9
ATOM      9  N   ILE A   1      67.878  37.551  -8.268  0.00  0.00    -0.238 NA
ATOM     10  H   ILE A   1      68.328  38.488  -8.267  0.00  0.00    +0.142 HD
ENDBRANCH   1   9
BRANCH   1  11
ATOM     11  CB  ILE A   1      67.345  38.079  -5.935  0.00  0.00    +0.025 C 
ATOM     12  CG2 ILE A   1      66.336  37.800  -4.819  0.00  0.00    +0.002 C 
BRANCH  11  13
ATOM     13  CG1 ILE A   1      68.788  37.836  -5.452  0.00  0.00    +0.002 C 
ATOM     14  CD1 ILE A   1      69.281  38.857  -4.443  0.00  0.00    +0.000 C 
ENDBRANCH  11  13
ENDBRANCH   1  11
TORSDOF 6
REMARK  Name = ../refined-set-2016/4nra/4nra_pocket.pdb
REMARK  86 active torsions:
REMARK  status: ('A' for Active; 'I' for Inactive)
REMARK    1  A    between atoms: _1  and  _3
REMARK    2  A    between atoms: _3  and  _4
REMARK    3  A    between atoms: _7  and  _9
REMARK    4  A    between atoms: _9  and  _10
REMARK    5  A    between atoms: _9  and  _12
REMARK    6  A    between atoms: _12  and  _13
REMARK    7  A    between atoms: _24  and  _25
REMARK    8  A    between atoms: _30  and  _32
REMARK    9  A    between atoms: _32  and  _33
REMARK   10  A    between atoms: _32  and  _35
REMARK   11  A    between atoms: _35  and  _36
REMARK   12  A    between atoms: _42  and  _44
REMARK   13  A    between atoms: _44  and  _45
REMARK   14  A    between atoms: _44  and  _47
REMARK   15  A    between atoms: _47  and  _48
REMARK   16  A    between atoms: _51  and  _53
REMARK   17  A    between atoms: _53  and  _54
REMARK   18  A    between atoms: _53  and  _56
REMARK   19  A    between atoms: _56  and  _57
REMARK   20  A    between atoms: _61  and  _62
REMARK   21  A    between atoms: _67  and  _69
REMARK   22  A    between atoms: _69  and  _70
REMARK   23  A    between atoms: _69  and  _72
REMARK   24  A    between atoms: _75  and  _77
REMARK   25  A    between atoms: _77  and  _78
REMARK   26  A    between atoms: _77  and  _80
REMARK   27  A    between atoms: _80  and  _81
REMARK   28  A    between atoms: _86  and  _88
REMARK   29  A    between atoms: _88  and  _89
REMARK   30  A    between atoms: _88  and  _91
REMARK   31  A    between atoms: _95  and  _96
REMARK   32  A    between atoms: _101  and  _103
REMARK   33  A    between atoms: _103  and  _104
REMARK   34  A    between atoms: _103  and  _106
REMARK   35  A    between atoms: _106  and  _107
REMARK   36  A    between atoms: _112  and  _113
REMARK   37  A    between atoms: _115  and  _117
REMARK   38  A    between atoms: _117  and  _118
REMARK   39  A    between atoms: _117  and  _120
REMARK   40  A    between atoms: _120  and  _121
REMARK   41  A    between atoms: _124  and  _126
REMARK   42  A    between atoms: _126  and  _127
REMARK   43  A    between atoms: _126  and  _129
REMARK   44  A    between atoms: _129  and  _130
REMARK   45  A    between atoms: _130  and  _131
REMARK   46  A    between atoms: _133  and  _135
REMARK   47  A    between atoms: _135  and  _136
REMARK   48  A    between atoms: _135  and  _138
REMARK   49  A    between atoms: _138  and  _139
REMARK   50  A    between atoms: _142  and  _144
REMARK   51  A    between atoms: _144  and  _145
REMARK   52  A    between atoms: _144  and  _147
REMARK   53  A    between atoms: _150  and  _152
REMARK   54  A    between atoms: _152  and  _153
REMARK   55  A    between atoms: _152  and  _155
REMARK   56  A    between atoms: _155  and  _156
REMARK   57  A    between atoms: _161  and  _163
REMARK   58  A    between atoms: _163  and  _164
REMARK   59  A    between atoms: _163  and  _166
REMARK   60  A    between atoms: _168  and  _170
REMARK   61  A    between atoms: _170  and  _171
REMARK   62  A    between atoms: _170  and  _173
REMARK   63  A    between atoms: _173  and  _174
REMARK   64  A    between atoms: _174  and  _175
REMARK   65  A    between atoms: _178  and  _180
REMARK   66  A    between atoms: _180  and  _181
REMARK   67  A    between atoms: _180  and  _183
REMARK   68  A    between atoms: _183  and  _184
REMARK   69  A    between atoms: _187  and  _189
REMARK   70  A    between atoms: _189  and  _190
REMARK   71  A    between atoms: _189  and  _192
REMARK   72  A    between atoms: _192  and  _193
REMARK   73  A    between atoms: _199  and  _201
REMARK   74  A    between atoms: _201  and  _202
REMARK   75  A    between atoms: _201  and  _204
REMARK   76  A    between atoms: _204  and  _205
REMARK   77  A    between atoms: _210  and  _212
REMARK   78  A    between atoms: _212  and  _213
REMARK   79  A    between atoms: _212  and  _215
REMARK   80  A    between atoms: _215  and  _216
REMARK   81  A    between atoms: _219  and  _221
REMARK   82  A    between atoms: _221  and  _222
REMARK   83  A    between atoms: _224  and  _226
REMARK   84  A    between atoms: _226  and  _227
REMARK   85  A    between atoms: _230  and  _232
REMARK   86  A    between atoms: _232  and  _233
REMARK                            x       y       z     vdW  Elec       q    Type
REMARK                         _______ _______ _______ _____ _____    ______ ____
ROOT
ATOM      1  C   ALA A   1      64.112  32.569  -7.610  0.00  0.00    +0.238 C 
ATOM      2  N   GLY A   2      63.468  33.646  -7.185  0.00  0.00    -0.297 N 
ATOM      3  H   GLY A   2      63.838  34.600  -7.370  0.00  0.00    +0.150 HD
ATOM      4  O   ALA A   1      63.698  31.418  -7.398  0.00  0.00    -0.274 OA
ENDROOT
BRANCH   1   5
ATOM      5  CA  ALA A   1      65.410  32.782  -8.340  0.00  0.00    +0.145 C 
ATOM      6  CB  ALA A   1      66.540  33.029  -7.367  0.00  0.00    +0.028 C 
BRANCH   5   7
ATOM      7  N   ALA A   1      65.288  33.859  -9.300  0.00  0.00    -0.238 NA
ATOM      8  H   ALA A   1      65.942  34.667  -9.256  0.00  0.00    +0.142 HD
ENDBRANCH   5   7
ENDBRANCH   1   5
BRANCH   2   9
ATOM      9  CA  GLY A   2      62.226  33.450  -6.451  0.00  0.00    +0.163 C 
BRANCH   9  10
ATOM     10  C   GLY A   2      61.118  32.826  -7.254  0.00  0.00    +0.229 C 
ATOM     11  O   GLY A   2      60.415  31.908  -6.795  0.00  0.00    -0.286 OA
ENDBRANCH   9  10
ENDBRANCH   2   9
TORSDOF 4
REMARK  Name = ../refined-set-2016/4nra/4nra_pocket.pdb
REMARK  86 active torsions:
REMARK  status: ('A' for Active; 'I' for Inactive)
REMARK    1  A    between atoms: _1  and  _3
REMARK    2  A    between atoms: _3  and  _4
REMARK    3  A    between atoms: _7  and  _9
REMARK    4  A    between atoms: _9  and  _10
REMARK    5  A    between atoms: _9  and  _12
REMARK    6  A    between atoms: _12  and  _13
REMARK    7  A    between atoms: _24  and  _25
REMARK    8  A    between atoms: _30  and  _32
REMARK    9  A    between atoms: _32  and  _33
REMARK   10  A    between atoms: _32  and  _35
REMARK   11  A    between atoms: _35  and  _36
REMARK   12  A    between atoms: _42  and  _44
REMARK   13  A    between atoms: _44  and  _45
REMARK   14  A    between atoms: _44  and  _47
REMARK   15  A    between atoms: _47  and  _48
REMARK   16  A    between atoms: _51  and  _53
REMARK   17  A    between atoms: _53  and  _54
REMARK   18  A    between atoms: _53  and  _56
REMARK   19  A    between atoms: _56  and  _57
REMARK   20  A    between atoms: _61  and  _62
REMARK   21  A    between atoms: _67  and  _69
REMARK   22  A    between atoms: _69  and  _70
REMARK   23  A    between atoms: _69  and  _72
REMARK   24  A    between atoms: _75  and  _77
REMARK   25  A    between atoms: _77  and  _78
REMARK   26  A    between atoms: _77  and  _80
REMARK   27  A    between atoms: _80  and  _81
REMARK   28  A    between atoms: _86  and  _88
REMARK   29  A    between atoms: _88  and  _89
REMARK   30  A    between atoms: _88  and  _91
REMARK   31  A    between atoms: _95  and  _96
REMARK   32  A    between atoms: _101  and  _103
REMARK   33  A    between atoms: _103  and  _104
REMARK   34  A    between atoms: _103  and  _106
REMARK   35  A    between atoms: _106  and  _107
REMARK   36  A    between atoms: _112  and  _113
REMARK   37  A    between atoms: _115  and  _117
REMARK   38  A    between atoms: _117  and  _118
REMARK   39  A    between atoms: _117  and  _120
REMARK   40  A    between atoms: _120  and  _121
REMARK   41  A    between atoms: _124  and  _126
REMARK   42  A    between atoms: _126  and  _127
REMARK   43  A    between atoms: _126  and  _129
REMARK   44  A    between atoms: _129  and  _130
REMARK   45  A    between atoms: _130  and  _131
REMARK   46  A    between atoms: _133  and  _135
REMARK   47  A    between atoms: _135  and  _136
REMARK   48  A    between atoms: _135  and  _138
REMARK   49  A    between atoms: _138  and  _139
REMARK   50  A    between atoms: _142  and  _144
REMARK   51  A    between atoms: _144  and  _145
REMARK   52  A    between atoms: _144  and  _147
REMARK   53  A    between atoms: _150  and  _152
REMARK   54  A    between atoms: _152  and  _153
REMARK   55  A    between atoms: _152  and  _155
REMARK   56  A    between atoms: _155  and  _156
REMARK   57  A    between atoms: _161  and  _163
REMARK   58  A    between atoms: _163  and  _164
REMARK   59  A    between atoms: _163  and  _166
REMARK   60  A    between atoms: _168  and  _170
REMARK   61  A    between atoms: _170  and  _171
REMARK   62  A    between atoms: _170  and  _173
REMARK   63  A    between atoms: _173  and  _174
REMARK   64  A    between atoms: _174  and  _175
REMARK   65  A    between atoms: _178  and  _180
REMARK   66  A    between atoms: _180  and  _181
REMARK   67  A    between atoms: _180  and  _183
REMARK   68  A    between atoms: _183  and  _184
REMARK   69  A    between atoms: _187  and  _189
REMARK   70  A    between atoms: _189  and  _190
REMARK   71  A    between atoms: _189  and  _192
REMARK   72  A    between atoms: _192  and  _193
REMARK   73  A    between atoms: _199  and  _201
REMARK   74  A    between atoms: _201  and  _202
REMARK   75  A    between atoms: _201  and  _204
REMARK   76  A    between atoms: _204  and  _205
REMARK   77  A    between atoms: _210  and  _212
REMARK   78  A    between atoms: _212  and  _213
REMARK   79  A    between atoms: _212  and  _215
REMARK   80  A    between atoms: _215  and  _216
REMARK   81  A    between atoms: _219  and  _221
REMARK   82  A    between atoms: _221  and  _222
REMARK   83  A    between atoms: _224  and  _226
REMARK   84  A    between atoms: _226  and  _227
REMARK   85  A    between atoms: _230  and  _232
REMARK   86  A    between atoms: _232  and  _233
REMARK                            x       y       z     vdW  Elec       q    Type
REMARK                         _______ _______ _______ _____ _____    ______ ____
ROOT
ATOM      1  O   HOH     1      71.153  39.495   3.768  0.00  0.00    +0.000 OA
ENDROOT
TORSDOF 0
REMARK  Name = ../refined-set-2016/4nra/4nra_pocket.pdb
REMARK  86 active torsions:
REMARK  status: ('A' for Active; 'I' for Inactive)
REMARK    1  A    between atoms: _1  and  _3
REMARK    2  A    between atoms: _3  and  _4
REMARK    3  A    between atoms: _7  and  _9
REMARK    4  A    between atoms: _9  and  _10
REMARK    5  A    between atoms: _9  and  _12
REMARK    6  A    between atoms: _12  and  _13
REMARK    7  A    between atoms: _24  and  _25
REMARK    8  A    between atoms: _30  and  _32
REMARK    9  A    between atoms: _32  and  _33
REMARK   10  A    between atoms: _32  and  _35
REMARK   11  A    between atoms: _35  and  _36
REMARK   12  A    between atoms: _42  and  _44
REMARK   13  A    between atoms: _44  and  _45
REMARK   14  A    between atoms: _44  and  _47
REMARK   15  A    between atoms: _47  and  _48
REMARK   16  A    between atoms: _51  and  _53
REMARK   17  A    between atoms: _53  and  _54
REMARK   18  A    between atoms: _53  and  _56
REMARK   19  A    between atoms: _56  and  _57
REMARK   20  A    between atoms: _61  and  _62
REMARK   21  A    between atoms: _67  and  _69
REMARK   22  A    between atoms: _69  and  _70
REMARK   23  A    between atoms: _69  and  _72
REMARK   24  A    between atoms: _75  and  _77
REMARK   25  A    between atoms: _77  and  _78
REMARK   26  A    between atoms: _77  and  _80
REMARK   27  A    between atoms: _80  and  _81
REMARK   28  A    between atoms: _86  and  _88
REMARK   29  A    between atoms: _88  and  _89
REMARK   30  A    between atoms: _88  and  _91
REMARK   31  A    between atoms: _95  and  _96
REMARK   32  A    between atoms: _101  and  _103
REMARK   33  A    between atoms: _103  and  _104
REMARK   34  A    between atoms: _103  and  _106
REMARK   35  A    between atoms: _106  and  _107
REMARK   36  A    between atoms: _112  and  _113
REMARK   37  A    between atoms: _115  and  _117
REMARK   38  A    between atoms: _117  and  _118
REMARK   39  A    between atoms: _117  and  _120
REMARK   40  A    between atoms: _120  and  _121
REMARK   41  A    between atoms: _124  and  _126
REMARK   42  A    between atoms: _126  and  _127
REMARK   43  A    between atoms: _126  and  _129
REMARK   44  A    between atoms: _129  and  _130
REMARK   45  A    between atoms: _130  and  _131
REMARK   46  A    between atoms: _133  and  _135
REMARK   47  A    between atoms: _135  and  _136
REMARK   48  A    between atoms: _135  and  _138
REMARK   49  A    between atoms: _138  and  _139
REMARK   50  A    between atoms: _142  and  _144
REMARK   51  A    between atoms: _144  and  _145
REMARK   52  A    between atoms: _144  and  _147
REMARK   53  A    between atoms: _150  and  _152
REMARK   54  A    between atoms: _152  and  _153
REMARK   55  A    between atoms: _152  and  _155
REMARK   56  A    between atoms: _155  and  _156
REMARK   57  A    between atoms: _161  and  _163
REMARK   58  A    between atoms: _163  and  _164
REMARK   59  A    between atoms: _163  and  _166
REMARK   60  A    between atoms: _168  and  _170
REMARK   61  A    between atoms: _170  and  _171
REMARK   62  A    between atoms: _170  and  _173
REMARK   63  A    between atoms: _173  and  _174
REMARK   64  A    between atoms: _174  and  _175
REMARK   65  A    between atoms: _178  and  _180
REMARK   66  A    between atoms: _180  and  _181
REMARK   67  A    between atoms: _180  and  _183
REMARK   68  A    between atoms: _183  and  _184
REMARK   69  A    between atoms: _187  and  _189
REMARK   70  A    between atoms: _189  and  _190
REMARK   71  A    between atoms: _189  and  _192
REMARK   72  A    between atoms: _192  and  _193
REMARK   73  A    between atoms: _199  and  _201
REMARK   74  A    between atoms: _201  and  _202
REMARK   75  A    between atoms: _201  and  _204
REMARK   76  A    between atoms: _204  and  _205
REMARK   77  A    between atoms: _210  and  _212
REMARK   78  A    between atoms: _212  and  _213
REMARK   79  A    between atoms: _212  and  _215
REMARK   80  A    between atoms: _215  and  _216
REMARK   81  A    between atoms: _219  and  _221
REMARK   82  A    between atoms: _221  and  _222
REMARK   83  A    between atoms: _224  and  _226
REMARK   84  A    between atoms: _226  and  _227
REMARK   85  A    between atoms: _230  and  _232
REMARK   86  A    between atoms: _232  and  _233
REMARK                            x       y       z     vdW  Elec       q    Type
REMARK                         _______ _______ _______ _____ _____    ______ ____
ROOT
ATOM      1  O   HOH     1      62.614  36.216   0.168  0.00  0.00    +0.000 OA
ENDROOT
TORSDOF 0
REMARK  Name = ../refined-set-2016/4nra/4nra_pocket.pdb
REMARK  86 active torsions:
REMARK  status: ('A' for Active; 'I' for Inactive)
REMARK    1  A    between atoms: _1  and  _3
REMARK    2  A    between atoms: _3  and  _4
REMARK    3  A    between atoms: _7  and  _9
REMARK    4  A    between atoms: _9  and  _10
REMARK    5  A    between atoms: _9  and  _12
REMARK    6  A    between atoms: _12  and  _13
REMARK    7  A    between atoms: _24  and  _25
REMARK    8  A    between atoms: _30  and  _32
REMARK    9  A    between atoms: _32  and  _33
REMARK   10  A    between atoms: _32  and  _35
REMARK   11  A    between atoms: _35  and  _36
REMARK   12  A    between atoms: _42  and  _44
REMARK   13  A    between atoms: _44  and  _45
REMARK   14  A    between atoms: _44  and  _47
REMARK   15  A    between atoms: _47  and  _48
REMARK   16  A    between atoms: _51  and  _53
REMARK   17  A    between atoms: _53  and  _54
REMARK   18  A    between atoms: _53  and  _56
REMARK   19  A    between atoms: _56  and  _57
REMARK   20  A    between atoms: _61  and  _62
REMARK   21  A    between atoms: _67  and  _69
REMARK   22  A    between atoms: _69  and  _70
REMARK   23  A    between atoms: _69  and  _72
REMARK   24  A    between atoms: _75  and  _77
REMARK   25  A    between atoms: _77  and  _78
REMARK   26  A    between atoms: _77  and  _80
REMARK   27  A    between atoms: _80  and  _81
REMARK   28  A    between atoms: _86  and  _88
REMARK   29  A    between atoms: _88  and  _89
REMARK   30  A    between atoms: _88  and  _91
REMARK   31  A    between atoms: _95  and  _96
REMARK   32  A    between atoms: _101  and  _103
REMARK   33  A    between atoms: _103  and  _104
REMARK   34  A    between atoms: _103  and  _106
REMARK   35  A    between atoms: _106  and  _107
REMARK   36  A    between atoms: _112  and  _113
REMARK   37  A    between atoms: _115  and  _117
REMARK   38  A    between atoms: _117  and  _118
REMARK   39  A    between atoms: _117  and  _120
REMARK   40  A    between atoms: _120  and  _121
REMARK   41  A    between atoms: _124  and  _126
REMARK   42  A    between atoms: _126  and  _127
REMARK   43  A    between atoms: _126  and  _129
REMARK   44  A    between atoms: _129  and  _130
REMARK   45  A    between atoms: _130  and  _131
REMARK   46  A    between atoms: _133  and  _135
REMARK   47  A    between atoms: _135  and  _136
REMARK   48  A    between atoms: _135  and  _138
REMARK   49  A    between atoms: _138  and  _139
REMARK   50  A    between atoms: _142  and  _144
REMARK   51  A    between atoms: _144  and  _145
REMARK   52  A    between atoms: _144  and  _147
REMARK   53  A    between atoms: _150  and  _152
REMARK   54  A    between atoms: _152  and  _153
REMARK   55  A    between atoms: _152  and  _155
REMARK   56  A    between atoms: _155  and  _156
REMARK   57  A    between atoms: _161  and  _163
REMARK   58  A    between atoms: _163  and  _164
REMARK   59  A    between atoms: _163  and  _166
REMARK   60  A    between atoms: _168  and  _170
REMARK   61  A    between atoms: _170  and  _171
REMARK   62  A    between atoms: _170  and  _173
REMARK   63  A    between atoms: _173  and  _174
REMARK   64  A    between atoms: _174  and  _175
REMARK   65  A    between atoms: _178  and  _180
REMARK   66  A    between atoms: _180  and  _181
REMARK   67  A    between atoms: _180  and  _183
REMARK   68  A    between atoms: _183  and  _184
REMARK   69  A    between atoms: _187  and  _189
REMARK   70  A    between atoms: _189  and  _190
REMARK   71  A    between atoms: _189  and  _192
REMARK   72  A    between atoms: _192  and  _193
REMARK   73  A    between atoms: _199  and  _201
REMARK   74  A    between atoms: _201  and  _202
REMARK   75  A    between atoms: _201  and  _204
REMARK   76  A    between atoms: _204  and  _205
REMARK   77  A    between atoms: _210  and  _212
REMARK   78  A    between atoms: _212  and  _213
REMARK   79  A    between atoms: _212  and  _215
REMARK   80  A    between atoms: _215  and  _216
REMARK   81  A    between atoms: _219  and  _221
REMARK   82  A    between atoms: _221  and  _222
REMARK   83  A    between atoms: _224  and  _226
REMARK   84  A    between atoms: _226  and  _227
REMARK   85  A    between atoms: _230  and  _232
REMARK   86  A    between atoms: _232  and  _233
REMARK                            x       y       z     vdW  Elec       q    Type
REMARK                         _______ _______ _______ _____ _____    ______ ____
ROOT
ATOM      1  O   HOH     1      69.485  40.043  -7.880  0.00  0.00    +0.000 OA
ENDROOT
TORSDOF 0
REMARK  Name = ../refined-set-2016/4nra/4nra_pocket.pdb
REMARK  86 active torsions:
REMARK  status: ('A' for Active; 'I' for Inactive)
REMARK    1  A    between atoms: _1  and  _3
REMARK    2  A    between atoms: _3  and  _4
REMARK    3  A    between atoms: _7  and  _9
REMARK    4  A    between atoms: _9  and  _10
REMARK    5  A    between atoms: _9  and  _12
REMARK    6  A    between atoms: _12  and  _13
REMARK    7  A    between atoms: _24  and  _25
REMARK    8  A    between atoms: _30  and  _32
REMARK    9  A    between atoms: _32  and  _33
REMARK   10  A    between atoms: _32  and  _35
REMARK   11  A    between atoms: _35  and  _36
REMARK   12  A    between atoms: _42  and  _44
REMARK   13  A    between atoms: _44  and  _45
REMARK   14  A    between atoms: _44  and  _47
REMARK   15  A    between atoms: _47  and  _48
REMARK   16  A    between atoms: _51  and  _53
REMARK   17  A    between atoms: _53  and  _54
REMARK   18  A    between atoms: _53  and  _56
REMARK   19  A    between atoms: _56  and  _57
REMARK   20  A    between atoms: _61  and  _62
REMARK   21  A    between atoms: _67  and  _69
REMARK   22  A    between atoms: _69  and  _70
REMARK   23  A    between atoms: _69  and  _72
REMARK   24  A    between atoms: _75  and  _77
REMARK   25  A    between atoms: _77  and  _78
REMARK   26  A    between atoms: _77  and  _80
REMARK   27  A    between atoms: _80  and  _81
REMARK   28  A    between atoms: _86  and  _88
REMARK   29  A    between atoms: _88  and  _89
REMARK   30  A    between atoms: _88  and  _91
REMARK   31  A    between atoms: _95  and  _96
REMARK   32  A    between atoms: _101  and  _103
REMARK   33  A    between atoms: _103  and  _104
REMARK   34  A    between atoms: _103  and  _106
REMARK   35  A    between atoms: _106  and  _107
REMARK   36  A    between atoms: _112  and  _113
REMARK   37  A    between atoms: _115  and  _117
REMARK   38  A    between atoms: _117  and  _118
REMARK   39  A    between atoms: _117  and  _120
REMARK   40  A    between atoms: _120  and  _121
REMARK   41  A    between atoms: _124  and  _126
REMARK   42  A    between atoms: _126  and  _127
REMARK   43  A    between atoms: _126  and  _129
REMARK   44  A    between atoms: _129  and  _130
REMARK   45  A    between atoms: _130  and  _131
REMARK   46  A    between atoms: _133  and  _135
REMARK   47  A    between atoms: _135  and  _136
REMARK   48  A    between atoms: _135  and  _138
REMARK   49  A    between atoms: _138  and  _139
REMARK   50  A    between atoms: _142  and  _144
REMARK   51  A    between atoms: _144  and  _145
REMARK   52  A    between atoms: _144  and  _147
REMARK   53  A    between atoms: _150  and  _152
REMARK   54  A    between atoms: _152  and  _153
REMARK   55  A    between atoms: _152  and  _155
REMARK   56  A    between atoms: _155  and  _156
REMARK   57  A    between atoms: _161  and  _163
REMARK   58  A    between atoms: _163  and  _164
REMARK   59  A    between atoms: _163  and  _166
REMARK   60  A    between atoms: _168  and  _170
REMARK   61  A    between atoms: _170  and  _171
REMARK   62  A    between atoms: _170  and  _173
REMARK   63  A    between atoms: _173  and  _174
REMARK   64  A    between atoms: _174  and  _175
REMARK   65  A    between atoms: _178  and  _180
REMARK   66  A    between atoms: _180  and  _181
REMARK   67  A    between atoms: _180  and  _183
REMARK   68  A    between atoms: _183  and  _184
REMARK   69  A    between atoms: _187  and  _189
REMARK   70  A    between atoms: _189  and  _190
REMARK   71  A    between atoms: _189  and  _192
REMARK   72  A    between atoms: _192  and  _193
REMARK   73  A    between atoms: _199  and  _201
REMARK   74  A    between atoms: _201  and  _202
REMARK   75  A    between atoms: _201  and  _204
REMARK   76  A    between atoms: _204  and  _205
REMARK   77  A    between atoms: _210  and  _212
REMARK   78  A    between atoms: _212  and  _213
REMARK   79  A    between atoms: _212  and  _215
REMARK   80  A    between atoms: _215  and  _216
REMARK   81  A    between atoms: _219  and  _221
REMARK   82  A    between atoms: _221  and  _222
REMARK   83  A    between atoms: _224  and  _226
REMARK   84  A    between atoms: _226  and  _227
REMARK   85  A    between atoms: _230  and  _232
REMARK   86  A    between atoms: _232  and  _233
REMARK                            x       y       z     vdW  Elec       q    Type
REMARK                         _______ _______ _______ _____ _____    ______ ____
ROOT
ATOM      1  O   HOH     1      62.319  37.383   3.971  0.00  0.00    +0.000 OA
ENDROOT
TORSDOF 0
REMARK  Name = ../refined-set-2016/4nra/4nra_pocket.pdb
REMARK  86 active torsions:
REMARK  status: ('A' for Active; 'I' for Inactive)
REMARK    1  A    between atoms: _1  and  _3
REMARK    2  A    between atoms: _3  and  _4
REMARK    3  A    between atoms: _7  and  _9
REMARK    4  A    between atoms: _9  and  _10
REMARK    5  A    between atoms: _9  and  _12
REMARK    6  A    between atoms: _12  and  _13
REMARK    7  A    between atoms: _24  and  _25
REMARK    8  A    between atoms: _30  and  _32
REMARK    9  A    between atoms: _32  and  _33
REMARK   10  A    between atoms: _32  and  _35
REMARK   11  A    between atoms: _35  and  _36
REMARK   12  A    between atoms: _42  and  _44
REMARK   13  A    between atoms: _44  and  _45
REMARK   14  A    between atoms: _44  and  _47
REMARK   15  A    between atoms: _47  and  _48
REMARK   16  A    between atoms: _51  and  _53
REMARK   17  A    between atoms: _53  and  _54
REMARK   18  A    between atoms: _53  and  _56
REMARK   19  A    between atoms: _56  and  _57
REMARK   20  A    between atoms: _61  and  _62
REMARK   21  A    between atoms: _67  and  _69
REMARK   22  A    between atoms: _69  and  _70
REMARK   23  A    between atoms: _69  and  _72
REMARK   24  A    between atoms: _75  and  _77
REMARK   25  A    between atoms: _77  and  _78
REMARK   26  A    between atoms: _77  and  _80
REMARK   27  A    between atoms: _80  and  _81
REMARK   28  A    between atoms: _86  and  _88
REMARK   29  A    between atoms: _88  and  _89
REMARK   30  A    between atoms: _88  and  _91
REMARK   31  A    between atoms: _95  and  _96
REMARK   32  A    between atoms: _101  and  _103
REMARK   33  A    between atoms: _103  and  _104
REMARK   34  A    between atoms: _103  and  _106
REMARK   35  A    between atoms: _106  and  _107
REMARK   36  A    between atoms: _112  and  _113
REMARK   37  A    between atoms: _115  and  _117
REMARK   38  A    between atoms: _117  and  _118
REMARK   39  A    between atoms: _117  and  _120
REMARK   40  A    between atoms: _120  and  _121
REMARK   41  A    between atoms: _124  and  _126
REMARK   42  A    between atoms: _126  and  _127
REMARK   43  A    between atoms: _126  and  _129
REMARK   44  A    between atoms: _129  and  _130
REMARK   45  A    between atoms: _130  and  _131
REMARK   46  A    between atoms: _133  and  _135
REMARK   47  A    between atoms: _135  and  _136
REMARK   48  A    between atoms: _135  and  _138
REMARK   49  A    between atoms: _138  and  _139
REMARK   50  A    between atoms: _142  and  _144
REMARK   51  A    between atoms: _144  and  _145
REMARK   52  A    between atoms: _144  and  _147
REMARK   53  A    between atoms: _150  and  _152
REMARK   54  A    between atoms: _152  and  _153
REMARK   55  A    between atoms: _152  and  _155
REMARK   56  A    between atoms: _155  and  _156
REMARK   57  A    between atoms: _161  and  _163
REMARK   58  A    between atoms: _163  and  _164
REMARK   59  A    between atoms: _163  and  _166
REMARK   60  A    between atoms: _168  and  _170
REMARK   61  A    between atoms: _170  and  _171
REMARK   62  A    between atoms: _170  and  _173
REMARK   63  A    between atoms: _173  and  _174
REMARK   64  A    between atoms: _174  and  _175
REMARK   65  A    between atoms: _178  and  _180
REMARK   66  A    between atoms: _180  and  _181
REMARK   67  A    between atoms: _180  and  _183
REMARK   68  A    between atoms: _183  and  _184
REMARK   69  A    between atoms: _187  and  _189
REMARK   70  A    between atoms: _189  and  _190
REMARK   71  A    between atoms: _189  and  _192
REMARK   72  A    between atoms: _192  and  _193
REMARK   73  A    between atoms: _199  and  _201
REMARK   74  A    between atoms: _201  and  _202
REMARK   75  A    between atoms: _201  and  _204
REMARK   76  A    between atoms: _204  and  _205
REMARK   77  A    between atoms: _210  and  _212
REMARK   78  A    between atoms: _212  and  _213
REMARK   79  A    between atoms: _212  and  _215
REMARK   80  A    between atoms: _215  and  _216
REMARK   81  A    between atoms: _219  and  _221
REMARK   82  A    between atoms: _221  and  _222
REMARK   83  A    between atoms: _224  and  _226
REMARK   84  A    between atoms: _226  and  _227
REMARK   85  A    between atoms: _230  and  _232
REMARK   86  A    between atoms: _232  and  _233
REMARK                            x       y       z     vdW  Elec       q    Type
REMARK                         _______ _______ _______ _____ _____    ______ ____
ROOT
ATOM      1  O   HOH     1      72.018  39.234  -6.657  0.00  0.00    +0.000 OA
ENDROOT
TORSDOF 0
REMARK  Name = ../refined-set-2016/4nra/4nra_pocket.pdb
REMARK  86 active torsions:
REMARK  status: ('A' for Active; 'I' for Inactive)
REMARK    1  A    between atoms: _1  and  _3
REMARK    2  A    between atoms: _3  and  _4
REMARK    3  A    between atoms: _7  and  _9
REMARK    4  A    between atoms: _9  and  _10
REMARK    5  A    between atoms: _9  and  _12
REMARK    6  A    between atoms: _12  and  _13
REMARK    7  A    between atoms: _24  and  _25
REMARK    8  A    between atoms: _30  and  _32
REMARK    9  A    between atoms: _32  and  _33
REMARK   10  A    between atoms: _32  and  _35
REMARK   11  A    between atoms: _35  and  _36
REMARK   12  A    between atoms: _42  and  _44
REMARK   13  A    between atoms: _44  and  _45
REMARK   14  A    between atoms: _44  and  _47
REMARK   15  A    between atoms: _47  and  _48
REMARK   16  A    between atoms: _51  and  _53
REMARK   17  A    between atoms: _53  and  _54
REMARK   18  A    between atoms: _53  and  _56
REMARK   19  A    between atoms: _56  and  _57
REMARK   20  A    between atoms: _61  and  _62
REMARK   21  A    between atoms: _67  and  _69
REMARK   22  A    between atoms: _69  and  _70
REMARK   23  A    between atoms: _69  and  _72
REMARK   24  A    between atoms: _75  and  _77
REMARK   25  A    between atoms: _77  and  _78
REMARK   26  A    between atoms: _77  and  _80
REMARK   27  A    between atoms: _80  and  _81
REMARK   28  A    between atoms: _86  and  _88
REMARK   29  A    between atoms: _88  and  _89
REMARK   30  A    between atoms: _88  and  _91
REMARK   31  A    between atoms: _95  and  _96
REMARK   32  A    between atoms: _101  and  _103
REMARK   33  A    between atoms: _103  and  _104
REMARK   34  A    between atoms: _103  and  _106
REMARK   35  A    between atoms: _106  and  _107
REMARK   36  A    between atoms: _112  and  _113
REMARK   37  A    between atoms: _115  and  _117
REMARK   38  A    between atoms: _117  and  _118
REMARK   39  A    between atoms: _117  and  _120
REMARK   40  A    between atoms: _120  and  _121
REMARK   41  A    between atoms: _124  and  _126
REMARK   42  A    between atoms: _126  and  _127
REMARK   43  A    between atoms: _126  and  _129
REMARK   44  A    between atoms: _129  and  _130
REMARK   45  A    between atoms: _130  and  _131
REMARK   46  A    between atoms: _133  and  _135
REMARK   47  A    between atoms: _135  and  _136
REMARK   48  A    between atoms: _135  and  _138
REMARK   49  A    between atoms: _138  and  _139
REMARK   50  A    between atoms: _142  and  _144
REMARK   51  A    between atoms: _144  and  _145
REMARK   52  A    between atoms: _144  and  _147
REMARK   53  A    between atoms: _150  and  _152
REMARK   54  A    between atoms: _152  and  _153
REMARK   55  A    between atoms: _152  and  _155
REMARK   56  A    between atoms: _155  and  _156
REMARK   57  A    between atoms: _161  and  _163
REMARK   58  A    between atoms: _163  and  _164
REMARK   59  A    between atoms: _163  and  _166
REMARK   60  A    between atoms: _168  and  _170
REMARK   61  A    between atoms: _170  and  _171
REMARK   62  A    between atoms: _170  and  _173
REMARK   63  A    between atoms: _173  and  _174
REMARK   64  A    between atoms: _174  and  _175
REMARK   65  A    between atoms: _178  and  _180
REMARK   66  A    between atoms: _180  and  _181
REMARK   67  A    between atoms: _180  and  _183
REMARK   68  A    between atoms: _183  and  _184
REMARK   69  A    between atoms: _187  and  _189
REMARK   70  A    between atoms: _189  and  _190
REMARK   71  A    between atoms: _189  and  _192
REMARK   72  A    between atoms: _192  and  _193
REMARK   73  A    between atoms: _199  and  _201
REMARK   74  A    between atoms: _201  and  _202
REMARK   75  A    between atoms: _201  and  _204
REMARK   76  A    between atoms: _204  and  _205
REMARK   77  A    between atoms: _210  and  _212
REMARK   78  A    between atoms: _212  and  _213
REMARK   79  A    between atoms: _212  and  _215
REMARK   80  A    between atoms: _215  and  _216
REMARK   81  A    between atoms: _219  and  _221
REMARK   82  A    between atoms: _221  and  _222
REMARK   83  A    between atoms: _224  and  _226
REMARK   84  A    between atoms: _226  and  _227
REMARK   85  A    between atoms: _230  and  _232
REMARK   86  A    between atoms: _232  and  _233
REMARK                            x       y       z     vdW  Elec       q    Type
REMARK                         _______ _______ _______ _____ _____    ______ ____
ROOT
ATOM      1  O   HOH     1      72.479  27.694  -2.826  0.00  0.00    +0.000 OA
ENDROOT
TORSDOF 0
REMARK  Name = ../refined-set-2016/4nra/4nra_pocket.pdb
REMARK  86 active torsions:
REMARK  status: ('A' for Active; 'I' for Inactive)
REMARK    1  A    between atoms: _1  and  _3
REMARK    2  A    between atoms: _3  and  _4
REMARK    3  A    between atoms: _7  and  _9
REMARK    4  A    between atoms: _9  and  _10
REMARK    5  A    between atoms: _9  and  _12
REMARK    6  A    between atoms: _12  and  _13
REMARK    7  A    between atoms: _24  and  _25
REMARK    8  A    between atoms: _30  and  _32
REMARK    9  A    between atoms: _32  and  _33
REMARK   10  A    between atoms: _32  and  _35
REMARK   11  A    between atoms: _35  and  _36
REMARK   12  A    between atoms: _42  and  _44
REMARK   13  A    between atoms: _44  and  _45
REMARK   14  A    between atoms: _44  and  _47
REMARK   15  A    between atoms: _47  and  _48
REMARK   16  A    between atoms: _51  and  _53
REMARK   17  A    between atoms: _53  and  _54
REMARK   18  A    between atoms: _53  and  _56
REMARK   19  A    between atoms: _56  and  _57
REMARK   20  A    between atoms: _61  and  _62
REMARK   21  A    between atoms: _67  and  _69
REMARK   22  A    between atoms: _69  and  _70
REMARK   23  A    between atoms: _69  and  _72
REMARK   24  A    between atoms: _75  and  _77
REMARK   25  A    between atoms: _77  and  _78
REMARK   26  A    between atoms: _77  and  _80
REMARK   27  A    between atoms: _80  and  _81
REMARK   28  A    between atoms: _86  and  _88
REMARK   29  A    between atoms: _88  and  _89
REMARK   30  A    between atoms: _88  and  _91
REMARK   31  A    between atoms: _95  and  _96
REMARK   32  A    between atoms: _101  and  _103
REMARK   33  A    between atoms: _103  and  _104
REMARK   34  A    between atoms: _103  and  _106
REMARK   35  A    between atoms: _106  and  _107
REMARK   36  A    between atoms: _112  and  _113
REMARK   37  A    between atoms: _115  and  _117
REMARK   38  A    between atoms: _117  and  _118
REMARK   39  A    between atoms: _117  and  _120
REMARK   40  A    between atoms: _120  and  _121
REMARK   41  A    between atoms: _124  and  _126
REMARK   42  A    between atoms: _126  and  _127
REMARK   43  A    between atoms: _126  and  _129
REMARK   44  A    between atoms: _129  and  _130
REMARK   45  A    between atoms: _130  and  _131
REMARK   46  A    between atoms: _133  and  _135
REMARK   47  A    between atoms: _135  and  _136
REMARK   48  A    between atoms: _135  and  _138
REMARK   49  A    between atoms: _138  and  _139
REMARK   50  A    between atoms: _142  and  _144
REMARK   51  A    between atoms: _144  and  _145
REMARK   52  A    between atoms: _144  and  _147
REMARK   53  A    between atoms: _150  and  _152
REMARK   54  A    between atoms: _152  and  _153
REMARK   55  A    between atoms: _152  and  _155
REMARK   56  A    between atoms: _155  and  _156
REMARK   57  A    between atoms: _161  and  _163
REMARK   58  A    between atoms: _163  and  _164
REMARK   59  A    between atoms: _163  and  _166
REMARK   60  A    between atoms: _168  and  _170
REMARK   61  A    between atoms: _170  and  _171
REMARK   62  A    between atoms: _170  and  _173
REMARK   63  A    between atoms: _173  and  _174
REMARK   64  A    between atoms: _174  and  _175
REMARK   65  A    between atoms: _178  and  _180
REMARK   66  A    between atoms: _180  and  _181
REMARK   67  A    between atoms: _180  and  _183
REMARK   68  A    between atoms: _183  and  _184
REMARK   69  A    between atoms: _187  and  _189
REMARK   70  A    between atoms: _189  and  _190
REMARK   71  A    between atoms: _189  and  _192
REMARK   72  A    between atoms: _192  and  _193
REMARK   73  A    between atoms: _199  and  _201
REMARK   74  A    between atoms: _201  and  _202
REMARK   75  A    between atoms: _201  and  _204
REMARK   76  A    between atoms: _204  and  _205
REMARK   77  A    between atoms: _210  and  _212
REMARK   78  A    between atoms: _212  and  _213
REMARK   79  A    between atoms: _212  and  _215
REMARK   80  A    between atoms: _215  and  _216
REMARK   81  A    between atoms: _219  and  _221
REMARK   82  A    between atoms: _221  and  _222
REMARK   83  A    between atoms: _224  and  _226
REMARK   84  A    between atoms: _226  and  _227
REMARK   85  A    between atoms: _230  and  _232
REMARK   86  A    between atoms: _232  and  _233
REMARK                            x       y       z     vdW  Elec       q    Type
REMARK                         _______ _______ _______ _____ _____    ______ ____
ROOT
ATOM      1  O   HOH     1      74.669  28.933  -0.743  0.00  0.00    +0.000 OA
ENDROOT
TORSDOF 0
REMARK  Name = ../refined-set-2016/4nra/4nra_pocket.pdb
REMARK  86 active torsions:
REMARK  status: ('A' for Active; 'I' for Inactive)
REMARK    1  A    between atoms: _1  and  _3
REMARK    2  A    between atoms: _3  and  _4
REMARK    3  A    between atoms: _7  and  _9
REMARK    4  A    between atoms: _9  and  _10
REMARK    5  A    between atoms: _9  and  _12
REMARK    6  A    between atoms: _12  and  _13
REMARK    7  A    between atoms: _24  and  _25
REMARK    8  A    between atoms: _30  and  _32
REMARK    9  A    between atoms: _32  and  _33
REMARK   10  A    between atoms: _32  and  _35
REMARK   11  A    between atoms: _35  and  _36
REMARK   12  A    between atoms: _42  and  _44
REMARK   13  A    between atoms: _44  and  _45
REMARK   14  A    between atoms: _44  and  _47
REMARK   15  A    between atoms: _47  and  _48
REMARK   16  A    between atoms: _51  and  _53
REMARK   17  A    between atoms: _53  and  _54
REMARK   18  A    between atoms: _53  and  _56
REMARK   19  A    between atoms: _56  and  _57
REMARK   20  A    between atoms: _61  and  _62
REMARK   21  A    between atoms: _67  and  _69
REMARK   22  A    between atoms: _69  and  _70
REMARK   23  A    between atoms: _69  and  _72
REMARK   24  A    between atoms: _75  and  _77
REMARK   25  A    between atoms: _77  and  _78
REMARK   26  A    between atoms: _77  and  _80
REMARK   27  A    between atoms: _80  and  _81
REMARK   28  A    between atoms: _86  and  _88
REMARK   29  A    between atoms: _88  and  _89
REMARK   30  A    between atoms: _88  and  _91
REMARK   31  A    between atoms: _95  and  _96
REMARK   32  A    between atoms: _101  and  _103
REMARK   33  A    between atoms: _103  and  _104
REMARK   34  A    between atoms: _103  and  _106
REMARK   35  A    between atoms: _106  and  _107
REMARK   36  A    between atoms: _112  and  _113
REMARK   37  A    between atoms: _115  and  _117
REMARK   38  A    between atoms: _117  and  _118
REMARK   39  A    between atoms: _117  and  _120
REMARK   40  A    between atoms: _120  and  _121
REMARK   41  A    between atoms: _124  and  _126
REMARK   42  A    between atoms: _126  and  _127
REMARK   43  A    between atoms: _126  and  _129
REMARK   44  A    between atoms: _129  and  _130
REMARK   45  A    between atoms: _130  and  _131
REMARK   46  A    between atoms: _133  and  _135
REMARK   47  A    between atoms: _135  and  _136
REMARK   48  A    between atoms: _135  and  _138
REMARK   49  A    between atoms: _138  and  _139
REMARK   50  A    between atoms: _142  and  _144
REMARK   51  A    between atoms: _144  and  _145
REMARK   52  A    between atoms: _144  and  _147
REMARK   53  A    between atoms: _150  and  _152
REMARK   54  A    between atoms: _152  and  _153
REMARK   55  A    between atoms: _152  and  _155
REMARK   56  A    between atoms: _155  and  _156
REMARK   57  A    between atoms: _161  and  _163
REMARK   58  A    between atoms: _163  and  _164
REMARK   59  A    between atoms: _163  and  _166
REMARK   60  A    between atoms: _168  and  _170
REMARK   61  A    between atoms: _170  and  _171
REMARK   62  A    between atoms: _170  and  _173
REMARK   63  A    between atoms: _173  and  _174
REMARK   64  A    between atoms: _174  and  _175
REMARK   65  A    between atoms: _178  and  _180
REMARK   66  A    between atoms: _180  and  _181
REMARK   67  A    between atoms: _180  and  _183
REMARK   68  A    between atoms: _183  and  _184
REMARK   69  A    between atoms: _187  and  _189
REMARK   70  A    between atoms: _189  and  _190
REMARK   71  A    between atoms: _189  and  _192
REMARK   72  A    between atoms: _192  and  _193
REMARK   73  A    between atoms: _199  and  _201
REMARK   74  A    between atoms: _201  and  _202
REMARK   75  A    between atoms: _201  and  _204
REMARK   76  A    between atoms: _204  and  _205
REMARK   77  A    between atoms: _210  and  _212
REMARK   78  A    between atoms: _212  and  _213
REMARK   79  A    between atoms: _212  and  _215
REMARK   80  A    between atoms: _215  and  _216
REMARK   81  A    between atoms: _219  and  _221
REMARK   82  A    between atoms: _221  and  _222
REMARK   83  A    between atoms: _224  and  _226
REMARK   84  A    between atoms: _226  and  _227
REMARK   85  A    between atoms: _230  and  _232
REMARK   86  A    between atoms: _232  and  _233
REMARK                            x       y       z     vdW  Elec       q    Type
REMARK                         _______ _______ _______ _____ _____    ______ ____
ROOT
ATOM      1  O   HOH     1      70.624  33.347   2.104  0.00  0.00    +0.000 OA
ENDROOT
TORSDOF 0
REMARK  Name = ../refined-set-2016/4nra/4nra_pocket.pdb
REMARK  86 active torsions:
REMARK  status: ('A' for Active; 'I' for Inactive)
REMARK    1  A    between atoms: _1  and  _3
REMARK    2  A    between atoms: _3  and  _4
REMARK    3  A    between atoms: _7  and  _9
REMARK    4  A    between atoms: _9  and  _10
REMARK    5  A    between atoms: _9  and  _12
REMARK    6  A    between atoms: _12  and  _13
REMARK    7  A    between atoms: _24  and  _25
REMARK    8  A    between atoms: _30  and  _32
REMARK    9  A    between atoms: _32  and  _33
REMARK   10  A    between atoms: _32  and  _35
REMARK   11  A    between atoms: _35  and  _36
REMARK   12  A    between atoms: _42  and  _44
REMARK   13  A    between atoms: _44  and  _45
REMARK   14  A    between atoms: _44  and  _47
REMARK   15  A    between atoms: _47  and  _48
REMARK   16  A    between atoms: _51  and  _53
REMARK   17  A    between atoms: _53  and  _54
REMARK   18  A    between atoms: _53  and  _56
REMARK   19  A    between atoms: _56  and  _57
REMARK   20  A    between atoms: _61  and  _62
REMARK   21  A    between atoms: _67  and  _69
REMARK   22  A    between atoms: _69  and  _70
REMARK   23  A    between atoms: _69  and  _72
REMARK   24  A    between atoms: _75  and  _77
REMARK   25  A    between atoms: _77  and  _78
REMARK   26  A    between atoms: _77  and  _80
REMARK   27  A    between atoms: _80  and  _81
REMARK   28  A    between atoms: _86  and  _88
REMARK   29  A    between atoms: _88  and  _89
REMARK   30  A    between atoms: _88  and  _91
REMARK   31  A    between atoms: _95  and  _96
REMARK   32  A    between atoms: _101  and  _103
REMARK   33  A    between atoms: _103  and  _104
REMARK   34  A    between atoms: _103  and  _106
REMARK   35  A    between atoms: _106  and  _107
REMARK   36  A    between atoms: _112  and  _113
REMARK   37  A    between atoms: _115  and  _117
REMARK   38  A    between atoms: _117  and  _118
REMARK   39  A    between atoms: _117  and  _120
REMARK   40  A    between atoms: _120  and  _121
REMARK   41  A    between atoms: _124  and  _126
REMARK   42  A    between atoms: _126  and  _127
REMARK   43  A    between atoms: _126  and  _129
REMARK   44  A    between atoms: _129  and  _130
REMARK   45  A    between atoms: _130  and  _131
REMARK   46  A    between atoms: _133  and  _135
REMARK   47  A    between atoms: _135  and  _136
REMARK   48  A    between atoms: _135  and  _138
REMARK   49  A    between atoms: _138  and  _139
REMARK   50  A    between atoms: _142  and  _144
REMARK   51  A    between atoms: _144  and  _145
REMARK   52  A    between atoms: _144  and  _147
REMARK   53  A    between atoms: _150  and  _152
REMARK   54  A    between atoms: _152  and  _153
REMARK   55  A    between atoms: _152  and  _155
REMARK   56  A    between atoms: _155  and  _156
REMARK   57  A    between atoms: _161  and  _163
REMARK   58  A    between atoms: _163  and  _164
REMARK   59  A    between atoms: _163  and  _166
REMARK   60  A    between atoms: _168  and  _170
REMARK   61  A    between atoms: _170  and  _171
REMARK   62  A    between atoms: _170  and  _173
REMARK   63  A    between atoms: _173  and  _174
REMARK   64  A    between atoms: _174  and  _175
REMARK   65  A    between atoms: _178  and  _180
REMARK   66  A    between atoms: _180  and  _181
REMARK   67  A    between atoms: _180  and  _183
REMARK   68  A    between atoms: _183  and  _184
REMARK   69  A    between atoms: _187  and  _189
REMARK   70  A    between atoms: _189  and  _190
REMARK   71  A    between atoms: _189  and  _192
REMARK   72  A    between atoms: _192  and  _193
REMARK   73  A    between atoms: _199  and  _201
REMARK   74  A    between atoms: _201  and  _202
REMARK   75  A    between atoms: _201  and  _204
REMARK   76  A    between atoms: _204  and  _205
REMARK   77  A    between atoms: _210  and  _212
REMARK   78  A    between atoms: _212  and  _213
REMARK   79  A    between atoms: _212  and  _215
REMARK   80  A    between atoms: _215  and  _216
REMARK   81  A    between atoms: _219  and  _221
REMARK   82  A    between atoms: _221  and  _222
REMARK   83  A    between atoms: _224  and  _226
REMARK   84  A    between atoms: _226  and  _227
REMARK   85  A    between atoms: _230  and  _232
REMARK   86  A    between atoms: _232  and  _233
REMARK                            x       y       z     vdW  Elec       q    Type
REMARK                         _______ _______ _______ _____ _____    ______ ____
ROOT
ATOM      1  O   HOH     1      70.299  35.884   3.287  0.00  0.00    +0.000 OA
ENDROOT
TORSDOF 0
REMARK  Name = ../refined-set-2016/4nra/4nra_pocket.pdb
REMARK  86 active torsions:
REMARK  status: ('A' for Active; 'I' for Inactive)
REMARK    1  A    between atoms: _1  and  _3
REMARK    2  A    between atoms: _3  and  _4
REMARK    3  A    between atoms: _7  and  _9
REMARK    4  A    between atoms: _9  and  _10
REMARK    5  A    between atoms: _9  and  _12
REMARK    6  A    between atoms: _12  and  _13
REMARK    7  A    between atoms: _24  and  _25
REMARK    8  A    between atoms: _30  and  _32
REMARK    9  A    between atoms: _32  and  _33
REMARK   10  A    between atoms: _32  and  _35
REMARK   11  A    between atoms: _35  and  _36
REMARK   12  A    between atoms: _42  and  _44
REMARK   13  A    between atoms: _44  and  _45
REMARK   14  A    between atoms: _44  and  _47
REMARK   15  A    between atoms: _47  and  _48
REMARK   16  A    between atoms: _51  and  _53
REMARK   17  A    between atoms: _53  and  _54
REMARK   18  A    between atoms: _53  and  _56
REMARK   19  A    between atoms: _56  and  _57
REMARK   20  A    between atoms: _61  and  _62
REMARK   21  A    between atoms: _67  and  _69
REMARK   22  A    between atoms: _69  and  _70
REMARK   23  A    between atoms: _69  and  _72
REMARK   24  A    between atoms: _75  and  _77
REMARK   25  A    between atoms: _77  and  _78
REMARK   26  A    between atoms: _77  and  _80
REMARK   27  A    between atoms: _80  and  _81
REMARK   28  A    between atoms: _86  and  _88
REMARK   29  A    between atoms: _88  and  _89
REMARK   30  A    between atoms: _88  and  _91
REMARK   31  A    between atoms: _95  and  _96
REMARK   32  A    between atoms: _101  and  _103
REMARK   33  A    between atoms: _103  and  _104
REMARK   34  A    between atoms: _103  and  _106
REMARK   35  A    between atoms: _106  and  _107
REMARK   36  A    between atoms: _112  and  _113
REMARK   37  A    between atoms: _115  and  _117
REMARK   38  A    between atoms: _117  and  _118
REMARK   39  A    between atoms: _117  and  _120
REMARK   40  A    between atoms: _120  and  _121
REMARK   41  A    between atoms: _124  and  _126
REMARK   42  A    between atoms: _126  and  _127
REMARK   43  A    between atoms: _126  and  _129
REMARK   44  A    between atoms: _129  and  _130
REMARK   45  A    between atoms: _130  and  _131
REMARK   46  A    between atoms: _133  and  _135
REMARK   47  A    between atoms: _135  and  _136
REMARK   48  A    between atoms: _135  and  _138
REMARK   49  A    between atoms: _138  and  _139
REMARK   50  A    between atoms: _142  and  _144
REMARK   51  A    between atoms: _144  and  _145
REMARK   52  A    between atoms: _144  and  _147
REMARK   53  A    between atoms: _150  and  _152
REMARK   54  A    between atoms: _152  and  _153
REMARK   55  A    between atoms: _152  and  _155
REMARK   56  A    between atoms: _155  and  _156
REMARK   57  A    between atoms: _161  and  _163
REMARK   58  A    between atoms: _163  and  _164
REMARK   59  A    between atoms: _163  and  _166
REMARK   60  A    between atoms: _168  and  _170
REMARK   61  A    between atoms: _170  and  _171
REMARK   62  A    between atoms: _170  and  _173
REMARK   63  A    between atoms: _173  and  _174
REMARK   64  A    between atoms: _174  and  _175
REMARK   65  A    between atoms: _178  and  _180
REMARK   66  A    between atoms: _180  and  _181
REMARK   67  A    between atoms: _180  and  _183
REMARK   68  A    between atoms: _183  and  _184
REMARK   69  A    between atoms: _187  and  _189
REMARK   70  A    between atoms: _189  and  _190
REMARK   71  A    between atoms: _189  and  _192
REMARK   72  A    between atoms: _192  and  _193
REMARK   73  A    between atoms: _199  and  _201
REMARK   74  A    between atoms: _201  and  _202
REMARK   75  A    between atoms: _201  and  _204
REMARK   76  A    between atoms: _204  and  _205
REMARK   77  A    between atoms: _210  and  _212
REMARK   78  A    between atoms: _212  and  _213
REMARK   79  A    between atoms: _212  and  _215
REMARK   80  A    between atoms: _215  and  _216
REMARK   81  A    between atoms: _219  and  _221
REMARK   82  A    between atoms: _221  and  _222
REMARK   83  A    between atoms: _224  and  _226
REMARK   84  A    between atoms: _226  and  _227
REMARK   85  A    between atoms: _230  and  _232
REMARK   86  A    between atoms: _232  and  _233
REMARK                            x       y       z     vdW  Elec       q    Type
REMARK                         _______ _______ _______ _____ _____    ______ ____
ROOT
ATOM      1  O   HOH     1      73.135  32.124   2.581  0.00  0.00    +0.000 OA
ENDROOT
TORSDOF 0
REMARK  Name = ../refined-set-2016/4nra/4nra_pocket.pdb
REMARK  86 active torsions:
REMARK  status: ('A' for Active; 'I' for Inactive)
REMARK    1  A    between atoms: _1  and  _3
REMARK    2  A    between atoms: _3  and  _4
REMARK    3  A    between atoms: _7  and  _9
REMARK    4  A    between atoms: _9  and  _10
REMARK    5  A    between atoms: _9  and  _12
REMARK    6  A    between atoms: _12  and  _13
REMARK    7  A    between atoms: _24  and  _25
REMARK    8  A    between atoms: _30  and  _32
REMARK    9  A    between atoms: _32  and  _33
REMARK   10  A    between atoms: _32  and  _35
REMARK   11  A    between atoms: _35  and  _36
REMARK   12  A    between atoms: _42  and  _44
REMARK   13  A    between atoms: _44  and  _45
REMARK   14  A    between atoms: _44  and  _47
REMARK   15  A    between atoms: _47  and  _48
REMARK   16  A    between atoms: _51  and  _53
REMARK   17  A    between atoms: _53  and  _54
REMARK   18  A    between atoms: _53  and  _56
REMARK   19  A    between atoms: _56  and  _57
REMARK   20  A    between atoms: _61  and  _62
REMARK   21  A    between atoms: _67  and  _69
REMARK   22  A    between atoms: _69  and  _70
REMARK   23  A    between atoms: _69  and  _72
REMARK   24  A    between atoms: _75  and  _77
REMARK   25  A    between atoms: _77  and  _78
REMARK   26  A    between atoms: _77  and  _80
REMARK   27  A    between atoms: _80  and  _81
REMARK   28  A    between atoms: _86  and  _88
REMARK   29  A    between atoms: _88  and  _89
REMARK   30  A    between atoms: _88  and  _91
REMARK   31  A    between atoms: _95  and  _96
REMARK   32  A    between atoms: _101  and  _103
REMARK   33  A    between atoms: _103  and  _104
REMARK   34  A    between atoms: _103  and  _106
REMARK   35  A    between atoms: _106  and  _107
REMARK   36  A    between atoms: _112  and  _113
REMARK   37  A    between atoms: _115  and  _117
REMARK   38  A    between atoms: _117  and  _118
REMARK   39  A    between atoms: _117  and  _120
REMARK   40  A    between atoms: _120  and  _121
REMARK   41  A    between atoms: _124  and  _126
REMARK   42  A    between atoms: _126  and  _127
REMARK   43  A    between atoms: _126  and  _129
REMARK   44  A    between atoms: _129  and  _130
REMARK   45  A    between atoms: _130  and  _131
REMARK   46  A    between atoms: _133  and  _135
REMARK   47  A    between atoms: _135  and  _136
REMARK   48  A    between atoms: _135  and  _138
REMARK   49  A    between atoms: _138  and  _139
REMARK   50  A    between atoms: _142  and  _144
REMARK   51  A    between atoms: _144  and  _145
REMARK   52  A    between atoms: _144  and  _147
REMARK   53  A    between atoms: _150  and  _152
REMARK   54  A    between atoms: _152  and  _153
REMARK   55  A    between atoms: _152  and  _155
REMARK   56  A    between atoms: _155  and  _156
REMARK   57  A    between atoms: _161  and  _163
REMARK   58  A    between atoms: _163  and  _164
REMARK   59  A    between atoms: _163  and  _166
REMARK   60  A    between atoms: _168  and  _170
REMARK   61  A    between atoms: _170  and  _171
REMARK   62  A    between atoms: _170  and  _173
REMARK   63  A    between atoms: _173  and  _174
REMARK   64  A    between atoms: _174  and  _175
REMARK   65  A    between atoms: _178  and  _180
REMARK   66  A    between atoms: _180  and  _181
REMARK   67  A    between atoms: _180  and  _183
REMARK   68  A    between atoms: _183  and  _184
REMARK   69  A    between atoms: _187  and  _189
REMARK   70  A    between atoms: _189  and  _190
REMARK   71  A    between atoms: _189  and  _192
REMARK   72  A    between atoms: _192  and  _193
REMARK   73  A    between atoms: _199  and  _201
REMARK   74  A    between atoms: _201  and  _202
REMARK   75  A    between atoms: _201  and  _204
REMARK   76  A    between atoms: _204  and  _205
REMARK   77  A    between atoms: _210  and  _212
REMARK   78  A    between atoms: _212  and  _213
REMARK   79  A    between atoms: _212  and  _215
REMARK   80  A    between atoms: _215  and  _216
REMARK   81  A    between atoms: _219  and  _221
REMARK   82  A    between atoms: _221  and  _222
REMARK   83  A    between atoms: _224  and  _226
REMARK   84  A    between atoms: _226  and  _227
REMARK   85  A    between atoms: _230  and  _232
REMARK   86  A    between atoms: _232  and  _233
REMARK                            x       y       z     vdW  Elec       q    Type
REMARK                         _______ _______ _______ _____ _____    ______ ____
ROOT
ATOM      1  O   HOH     1      73.463  31.732   0.059  0.00  0.00    +0.000 OA
ENDROOT
TORSDOF 0
REMARK  Name = ../refined-set-2016/4nra/4nra_pocket.pdb
REMARK  86 active torsions:
REMARK  status: ('A' for Active; 'I' for Inactive)
REMARK    1  A    between atoms: _1  and  _3
REMARK    2  A    between atoms: _3  and  _4
REMARK    3  A    between atoms: _7  and  _9
REMARK    4  A    between atoms: _9  and  _10
REMARK    5  A    between atoms: _9  and  _12
REMARK    6  A    between atoms: _12  and  _13
REMARK    7  A    between atoms: _24  and  _25
REMARK    8  A    between atoms: _30  and  _32
REMARK    9  A    between atoms: _32  and  _33
REMARK   10  A    between atoms: _32  and  _35
REMARK   11  A    between atoms: _35  and  _36
REMARK   12  A    between atoms: _42  and  _44
REMARK   13  A    between atoms: _44  and  _45
REMARK   14  A    between atoms: _44  and  _47
REMARK   15  A    between atoms: _47  and  _48
REMARK   16  A    between atoms: _51  and  _53
REMARK   17  A    between atoms: _53  and  _54
REMARK   18  A    between atoms: _53  and  _56
REMARK   19  A    between atoms: _56  and  _57
REMARK   20  A    between atoms: _61  and  _62
REMARK   21  A    between atoms: _67  and  _69
REMARK   22  A    between atoms: _69  and  _70
REMARK   23  A    between atoms: _69  and  _72
REMARK   24  A    between atoms: _75  and  _77
REMARK   25  A    between atoms: _77  and  _78
REMARK   26  A    between atoms: _77  and  _80
REMARK   27  A    between atoms: _80  and  _81
REMARK   28  A    between atoms: _86  and  _88
REMARK   29  A    between atoms: _88  and  _89
REMARK   30  A    between atoms: _88  and  _91
REMARK   31  A    between atoms: _95  and  _96
REMARK   32  A    between atoms: _101  and  _103
REMARK   33  A    between atoms: _103  and  _104
REMARK   34  A    between atoms: _103  and  _106
REMARK   35  A    between atoms: _106  and  _107
REMARK   36  A    between atoms: _112  and  _113
REMARK   37  A    between atoms: _115  and  _117
REMARK   38  A    between atoms: _117  and  _118
REMARK   39  A    between atoms: _117  and  _120
REMARK   40  A    between atoms: _120  and  _121
REMARK   41  A    between atoms: _124  and  _126
REMARK   42  A    between atoms: _126  and  _127
REMARK   43  A    between atoms: _126  and  _129
REMARK   44  A    between atoms: _129  and  _130
REMARK   45  A    between atoms: _130  and  _131
REMARK   46  A    between atoms: _133  and  _135
REMARK   47  A    between atoms: _135  and  _136
REMARK   48  A    between atoms: _135  and  _138
REMARK   49  A    between atoms: _138  and  _139
REMARK   50  A    between atoms: _142  and  _144
REMARK   51  A    between atoms: _144  and  _145
REMARK   52  A    between atoms: _144  and  _147
REMARK   53  A    between atoms: _150  and  _152
REMARK   54  A    between atoms: _152  and  _153
REMARK   55  A    between atoms: _152  and  _155
REMARK   56  A    between atoms: _155  and  _156
REMARK   57  A    between atoms: _161  and  _163
REMARK   58  A    between atoms: _163  and  _164
REMARK   59  A    between atoms: _163  and  _166
REMARK   60  A    between atoms: _168  and  _170
REMARK   61  A    between atoms: _170  and  _171
REMARK   62  A    between atoms: _170  and  _173
REMARK   63  A    between atoms: _173  and  _174
REMARK   64  A    between atoms: _174  and  _175
REMARK   65  A    between atoms: _178  and  _180
REMARK   66  A    between atoms: _180  and  _181
REMARK   67  A    between atoms: _180  and  _183
REMARK   68  A    between atoms: _183  and  _184
REMARK   69  A    between atoms: _187  and  _189
REMARK   70  A    between atoms: _189  and  _190
REMARK   71  A    between atoms: _189  and  _192
REMARK   72  A    between atoms: _192  and  _193
REMARK   73  A    between atoms: _199  and  _201
REMARK   74  A    between atoms: _201  and  _202
REMARK   75  A    between atoms: _201  and  _204
REMARK   76  A    between atoms: _204  and  _205
REMARK   77  A    between atoms: _210  and  _212
REMARK   78  A    between atoms: _212  and  _213
REMARK   79  A    between atoms: _212  and  _215
REMARK   80  A    between atoms: _215  and  _216
REMARK   81  A    between atoms: _219  and  _221
REMARK   82  A    between atoms: _221  and  _222
REMARK   83  A    between atoms: _224  and  _226
REMARK   84  A    between atoms: _226  and  _227
REMARK   85  A    between atoms: _230  and  _232
REMARK   86  A    between atoms: _232  and  _233
REMARK                            x       y       z     vdW  Elec       q    Type
REMARK                         _______ _______ _______ _____ _____    ______ ____
ROOT
ATOM      1  O   HOH     1      74.010  29.948   3.656  0.00  0.00    +0.000 OA
ENDROOT
TORSDOF 0
REMARK  Name = ../refined-set-2016/4nra/4nra_pocket.pdb
REMARK  86 active torsions:
REMARK  status: ('A' for Active; 'I' for Inactive)
REMARK    1  A    between atoms: _1  and  _3
REMARK    2  A    between atoms: _3  and  _4
REMARK    3  A    between atoms: _7  and  _9
REMARK    4  A    between atoms: _9  and  _10
REMARK    5  A    between atoms: _9  and  _12
REMARK    6  A    between atoms: _12  and  _13
REMARK    7  A    between atoms: _24  and  _25
REMARK    8  A    between atoms: _30  and  _32
REMARK    9  A    between atoms: _32  and  _33
REMARK   10  A    between atoms: _32  and  _35
REMARK   11  A    between atoms: _35  and  _36
REMARK   12  A    between atoms: _42  and  _44
REMARK   13  A    between atoms: _44  and  _45
REMARK   14  A    between atoms: _44  and  _47
REMARK   15  A    between atoms: _47  and  _48
REMARK   16  A    between atoms: _51  and  _53
REMARK   17  A    between atoms: _53  and  _54
REMARK   18  A    between atoms: _53  and  _56
REMARK   19  A    between atoms: _56  and  _57
REMARK   20  A    between atoms: _61  and  _62
REMARK   21  A    between atoms: _67  and  _69
REMARK   22  A    between atoms: _69  and  _70
REMARK   23  A    between atoms: _69  and  _72
REMARK   24  A    between atoms: _75  and  _77
REMARK   25  A    between atoms: _77  and  _78
REMARK   26  A    between atoms: _77  and  _80
REMARK   27  A    between atoms: _80  and  _81
REMARK   28  A    between atoms: _86  and  _88
REMARK   29  A    between atoms: _88  and  _89
REMARK   30  A    between atoms: _88  and  _91
REMARK   31  A    between atoms: _95  and  _96
REMARK   32  A    between atoms: _101  and  _103
REMARK   33  A    between atoms: _103  and  _104
REMARK   34  A    between atoms: _103  and  _106
REMARK   35  A    between atoms: _106  and  _107
REMARK   36  A    between atoms: _112  and  _113
REMARK   37  A    between atoms: _115  and  _117
REMARK   38  A    between atoms: _117  and  _118
REMARK   39  A    between atoms: _117  and  _120
REMARK   40  A    between atoms: _120  and  _121
REMARK   41  A    between atoms: _124  and  _126
REMARK   42  A    between atoms: _126  and  _127
REMARK   43  A    between atoms: _126  and  _129
REMARK   44  A    between atoms: _129  and  _130
REMARK   45  A    between atoms: _130  and  _131
REMARK   46  A    between atoms: _133  and  _135
REMARK   47  A    between atoms: _135  and  _136
REMARK   48  A    between atoms: _135  and  _138
REMARK   49  A    between atoms: _138  and  _139
REMARK   50  A    between atoms: _142  and  _144
REMARK   51  A    between atoms: _144  and  _145
REMARK   52  A    between atoms: _144  and  _147
REMARK   53  A    between atoms: _150  and  _152
REMARK   54  A    between atoms: _152  and  _153
REMARK   55  A    between atoms: _152  and  _155
REMARK   56  A    between atoms: _155  and  _156
REMARK   57  A    between atoms: _161  and  _163
REMARK   58  A    between atoms: _163  and  _164
REMARK   59  A    between atoms: _163  and  _166
REMARK   60  A    between atoms: _168  and  _170
REMARK   61  A    between atoms: _170  and  _171
REMARK   62  A    between atoms: _170  and  _173
REMARK   63  A    between atoms: _173  and  _174
REMARK   64  A    between atoms: _174  and  _175
REMARK   65  A    between atoms: _178  and  _180
REMARK   66  A    between atoms: _180  and  _181
REMARK   67  A    between atoms: _180  and  _183
REMARK   68  A    between atoms: _183  and  _184
REMARK   69  A    between atoms: _187  and  _189
REMARK   70  A    between atoms: _189  and  _190
REMARK   71  A    between atoms: _189  and  _192
REMARK   72  A    between atoms: _192  and  _193
REMARK   73  A    between atoms: _199  and  _201
REMARK   74  A    between atoms: _201  and  _202
REMARK   75  A    between atoms: _201  and  _204
REMARK   76  A    between atoms: _204  and  _205
REMARK   77  A    between atoms: _210  and  _212
REMARK   78  A    between atoms: _212  and  _213
REMARK   79  A    between atoms: _212  and  _215
REMARK   80  A    between atoms: _215  and  _216
REMARK   81  A    between atoms: _219  and  _221
REMARK   82  A    between atoms: _221  and  _222
REMARK   83  A    between atoms: _224  and  _226
REMARK   84  A    between atoms: _226  and  _227
REMARK   85  A    between atoms: _230  and  _232
REMARK   86  A    between atoms: _232  and  _233
REMARK                            x       y       z     vdW  Elec       q    Type
REMARK                         _______ _______ _______ _____ _____    ______ ____
ROOT
ATOM      1  O   HOH     1      64.472  37.271   5.955  0.00  0.00    +0.000 OA
ENDROOT
TORSDOF 0
REMARK  Name = ../refined-set-2016/4nra/4nra_pocket.pdb
REMARK  86 active torsions:
REMARK  status: ('A' for Active; 'I' for Inactive)
REMARK    1  A    between atoms: _1  and  _3
REMARK    2  A    between atoms: _3  and  _4
REMARK    3  A    between atoms: _7  and  _9
REMARK    4  A    between atoms: _9  and  _10
REMARK    5  A    between atoms: _9  and  _12
REMARK    6  A    between atoms: _12  and  _13
REMARK    7  A    between atoms: _24  and  _25
REMARK    8  A    between atoms: _30  and  _32
REMARK    9  A    between atoms: _32  and  _33
REMARK   10  A    between atoms: _32  and  _35
REMARK   11  A    between atoms: _35  and  _36
REMARK   12  A    between atoms: _42  and  _44
REMARK   13  A    between atoms: _44  and  _45
REMARK   14  A    between atoms: _44  and  _47
REMARK   15  A    between atoms: _47  and  _48
REMARK   16  A    between atoms: _51  and  _53
REMARK   17  A    between atoms: _53  and  _54
REMARK   18  A    between atoms: _53  and  _56
REMARK   19  A    between atoms: _56  and  _57
REMARK   20  A    between atoms: _61  and  _62
REMARK   21  A    between atoms: _67  and  _69
REMARK   22  A    between atoms: _69  and  _70
REMARK   23  A    between atoms: _69  and  _72
REMARK   24  A    between atoms: _75  and  _77
REMARK   25  A    between atoms: _77  and  _78
REMARK   26  A    between atoms: _77  and  _80
REMARK   27  A    between atoms: _80  and  _81
REMARK   28  A    between atoms: _86  and  _88
REMARK   29  A    between atoms: _88  and  _89
REMARK   30  A    between atoms: _88  and  _91
REMARK   31  A    between atoms: _95  and  _96
REMARK   32  A    between atoms: _101  and  _103
REMARK   33  A    between atoms: _103  and  _104
REMARK   34  A    between atoms: _103  and  _106
REMARK   35  A    between atoms: _106  and  _107
REMARK   36  A    between atoms: _112  and  _113
REMARK   37  A    between atoms: _115  and  _117
REMARK   38  A    between atoms: _117  and  _118
REMARK   39  A    between atoms: _117  and  _120
REMARK   40  A    between atoms: _120  and  _121
REMARK   41  A    between atoms: _124  and  _126
REMARK   42  A    between atoms: _126  and  _127
REMARK   43  A    between atoms: _126  and  _129
REMARK   44  A    between atoms: _129  and  _130
REMARK   45  A    between atoms: _130  and  _131
REMARK   46  A    between atoms: _133  and  _135
REMARK   47  A    between atoms: _135  and  _136
REMARK   48  A    between atoms: _135  and  _138
REMARK   49  A    between atoms: _138  and  _139
REMARK   50  A    between atoms: _142  and  _144
REMARK   51  A    between atoms: _144  and  _145
REMARK   52  A    between atoms: _144  and  _147
REMARK   53  A    between atoms: _150  and  _152
REMARK   54  A    between atoms: _152  and  _153
REMARK   55  A    between atoms: _152  and  _155
REMARK   56  A    between atoms: _155  and  _156
REMARK   57  A    between atoms: _161  and  _163
REMARK   58  A    between atoms: _163  and  _164
REMARK   59  A    between atoms: _163  and  _166
REMARK   60  A    between atoms: _168  and  _170
REMARK   61  A    between atoms: _170  and  _171
REMARK   62  A    between atoms: _170  and  _173
REMARK   63  A    between atoms: _173  and  _174
REMARK   64  A    between atoms: _174  and  _175
REMARK   65  A    between atoms: _178  and  _180
REMARK   66  A    between atoms: _180  and  _181
REMARK   67  A    between atoms: _180  and  _183
REMARK   68  A    between atoms: _183  and  _184
REMARK   69  A    between atoms: _187  and  _189
REMARK   70  A    between atoms: _189  and  _190
REMARK   71  A    between atoms: _189  and  _192
REMARK   72  A    between atoms: _192  and  _193
REMARK   73  A    between atoms: _199  and  _201
REMARK   74  A    between atoms: _201  and  _202
REMARK   75  A    between atoms: _201  and  _204
REMARK   76  A    between atoms: _204  and  _205
REMARK   77  A    between atoms: _210  and  _212
REMARK   78  A    between atoms: _212  and  _213
REMARK   79  A    between atoms: _212  and  _215
REMARK   80  A    between atoms: _215  and  _216
REMARK   81  A    between atoms: _219  and  _221
REMARK   82  A    between atoms: _221  and  _222
REMARK   83  A    between atoms: _224  and  _226
REMARK   84  A    between atoms: _226  and  _227
REMARK   85  A    between atoms: _230  and  _232
REMARK   86  A    between atoms: _232  and  _233
REMARK                            x       y       z     vdW  Elec       q    Type
REMARK                         _______ _______ _______ _____ _____    ______ ____
ROOT
ATOM      1  O   HOH     1      63.965  35.310   2.329  0.00  0.00    +0.000 OA
ENDROOT
TORSDOF 0
REMARK  Name = ../refined-set-2016/4nra/4nra_pocket.pdb
REMARK  86 active torsions:
REMARK  status: ('A' for Active; 'I' for Inactive)
REMARK    1  A    between atoms: _1  and  _3
REMARK    2  A    between atoms: _3  and  _4
REMARK    3  A    between atoms: _7  and  _9
REMARK    4  A    between atoms: _9  and  _10
REMARK    5  A    between atoms: _9  and  _12
REMARK    6  A    between atoms: _12  and  _13
REMARK    7  A    between atoms: _24  and  _25
REMARK    8  A    between atoms: _30  and  _32
REMARK    9  A    between atoms: _32  and  _33
REMARK   10  A    between atoms: _32  and  _35
REMARK   11  A    between atoms: _35  and  _36
REMARK   12  A    between atoms: _42  and  _44
REMARK   13  A    between atoms: _44  and  _45
REMARK   14  A    between atoms: _44  and  _47
REMARK   15  A    between atoms: _47  and  _48
REMARK   16  A    between atoms: _51  and  _53
REMARK   17  A    between atoms: _53  and  _54
REMARK   18  A    between atoms: _53  and  _56
REMARK   19  A    between atoms: _56  and  _57
REMARK   20  A    between atoms: _61  and  _62
REMARK   21  A    between atoms: _67  and  _69
REMARK   22  A    between atoms: _69  and  _70
REMARK   23  A    between atoms: _69  and  _72
REMARK   24  A    between atoms: _75  and  _77
REMARK   25  A    between atoms: _77  and  _78
REMARK   26  A    between atoms: _77  and  _80
REMARK   27  A    between atoms: _80  and  _81
REMARK   28  A    between atoms: _86  and  _88
REMARK   29  A    between atoms: _88  and  _89
REMARK   30  A    between atoms: _88  and  _91
REMARK   31  A    between atoms: _95  and  _96
REMARK   32  A    between atoms: _101  and  _103
REMARK   33  A    between atoms: _103  and  _104
REMARK   34  A    between atoms: _103  and  _106
REMARK   35  A    between atoms: _106  and  _107
REMARK   36  A    between atoms: _112  and  _113
REMARK   37  A    between atoms: _115  and  _117
REMARK   38  A    between atoms: _117  and  _118
REMARK   39  A    between atoms: _117  and  _120
REMARK   40  A    between atoms: _120  and  _121
REMARK   41  A    between atoms: _124  and  _126
REMARK   42  A    between atoms: _126  and  _127
REMARK   43  A    between atoms: _126  and  _129
REMARK   44  A    between atoms: _129  and  _130
REMARK   45  A    between atoms: _130  and  _131
REMARK   46  A    between atoms: _133  and  _135
REMARK   47  A    between atoms: _135  and  _136
REMARK   48  A    between atoms: _135  and  _138
REMARK   49  A    between atoms: _138  and  _139
REMARK   50  A    between atoms: _142  and  _144
REMARK   51  A    between atoms: _144  and  _145
REMARK   52  A    between atoms: _144  and  _147
REMARK   53  A    between atoms: _150  and  _152
REMARK   54  A    between atoms: _152  and  _153
REMARK   55  A    between atoms: _152  and  _155
REMARK   56  A    between atoms: _155  and  _156
REMARK   57  A    between atoms: _161  and  _163
REMARK   58  A    between atoms: _163  and  _164
REMARK   59  A    between atoms: _163  and  _166
REMARK   60  A    between atoms: _168  and  _170
REMARK   61  A    between atoms: _170  and  _171
REMARK   62  A    between atoms: _170  and  _173
REMARK   63  A    between atoms: _173  and  _174
REMARK   64  A    between atoms: _174  and  _175
REMARK   65  A    between atoms: _178  and  _180
REMARK   66  A    between atoms: _180  and  _181
REMARK   67  A    between atoms: _180  and  _183
REMARK   68  A    between atoms: _183  and  _184
REMARK   69  A    between atoms: _187  and  _189
REMARK   70  A    between atoms: _189  and  _190
REMARK   71  A    between atoms: _189  and  _192
REMARK   72  A    between atoms: _192  and  _193
REMARK   73  A    between atoms: _199  and  _201
REMARK   74  A    between atoms: _201  and  _202
REMARK   75  A    between atoms: _201  and  _204
REMARK   76  A    between atoms: _204  and  _205
REMARK   77  A    between atoms: _210  and  _212
REMARK   78  A    between atoms: _212  and  _213
REMARK   79  A    between atoms: _212  and  _215
REMARK   80  A    between atoms: _215  and  _216
REMARK   81  A    between atoms: _219  and  _221
REMARK   82  A    between atoms: _221  and  _222
REMARK   83  A    between atoms: _224  and  _226
REMARK   84  A    between atoms: _226  and  _227
REMARK   85  A    between atoms: _230  and  _232
REMARK   86  A    between atoms: _232  and  _233
REMARK                            x       y       z     vdW  Elec       q    Type
REMARK                         _______ _______ _______ _____ _____    ______ ____
ROOT
ATOM      1  O   HOH     1      66.478  35.414   2.666  0.00  0.00    +0.000 OA
ENDROOT
TORSDOF 0
REMARK  Name = ../refined-set-2016/4nra/4nra_pocket.pdb
REMARK  86 active torsions:
REMARK  status: ('A' for Active; 'I' for Inactive)
REMARK    1  A    between atoms: _1  and  _3
REMARK    2  A    between atoms: _3  and  _4
REMARK    3  A    between atoms: _7  and  _9
REMARK    4  A    between atoms: _9  and  _10
REMARK    5  A    between atoms: _9  and  _12
REMARK    6  A    between atoms: _12  and  _13
REMARK    7  A    between atoms: _24  and  _25
REMARK    8  A    between atoms: _30  and  _32
REMARK    9  A    between atoms: _32  and  _33
REMARK   10  A    between atoms: _32  and  _35
REMARK   11  A    between atoms: _35  and  _36
REMARK   12  A    between atoms: _42  and  _44
REMARK   13  A    between atoms: _44  and  _45
REMARK   14  A    between atoms: _44  and  _47
REMARK   15  A    between atoms: _47  and  _48
REMARK   16  A    between atoms: _51  and  _53
REMARK   17  A    between atoms: _53  and  _54
REMARK   18  A    between atoms: _53  and  _56
REMARK   19  A    between atoms: _56  and  _57
REMARK   20  A    between atoms: _61  and  _62
REMARK   21  A    between atoms: _67  and  _69
REMARK   22  A    between atoms: _69  and  _70
REMARK   23  A    between atoms: _69  and  _72
REMARK   24  A    between atoms: _75  and  _77
REMARK   25  A    between atoms: _77  and  _78
REMARK   26  A    between atoms: _77  and  _80
REMARK   27  A    between atoms: _80  and  _81
REMARK   28  A    between atoms: _86  and  _88
REMARK   29  A    between atoms: _88  and  _89
REMARK   30  A    between atoms: _88  and  _91
REMARK   31  A    between atoms: _95  and  _96
REMARK   32  A    between atoms: _101  and  _103
REMARK   33  A    between atoms: _103  and  _104
REMARK   34  A    between atoms: _103  and  _106
REMARK   35  A    between atoms: _106  and  _107
REMARK   36  A    between atoms: _112  and  _113
REMARK   37  A    between atoms: _115  and  _117
REMARK   38  A    between atoms: _117  and  _118
REMARK   39  A    between atoms: _117  and  _120
REMARK   40  A    between atoms: _120  and  _121
REMARK   41  A    between atoms: _124  and  _126
REMARK   42  A    between atoms: _126  and  _127
REMARK   43  A    between atoms: _126  and  _129
REMARK   44  A    between atoms: _129  and  _130
REMARK   45  A    between atoms: _130  and  _131
REMARK   46  A    between atoms: _133  and  _135
REMARK   47  A    between atoms: _135  and  _136
REMARK   48  A    between atoms: _135  and  _138
REMARK   49  A    between atoms: _138  and  _139
REMARK   50  A    between atoms: _142  and  _144
REMARK   51  A    between atoms: _144  and  _145
REMARK   52  A    between atoms: _144  and  _147
REMARK   53  A    between atoms: _150  and  _152
REMARK   54  A    between atoms: _152  and  _153
REMARK   55  A    between atoms: _152  and  _155
REMARK   56  A    between atoms: _155  and  _156
REMARK   57  A    between atoms: _161  and  _163
REMARK   58  A    between atoms: _163  and  _164
REMARK   59  A    between atoms: _163  and  _166
REMARK   60  A    between atoms: _168  and  _170
REMARK   61  A    between atoms: _170  and  _171
REMARK   62  A    between atoms: _170  and  _173
REMARK   63  A    between atoms: _173  and  _174
REMARK   64  A    between atoms: _174  and  _175
REMARK   65  A    between atoms: _178  and  _180
REMARK   66  A    between atoms: _180  and  _181
REMARK   67  A    between atoms: _180  and  _183
REMARK   68  A    between atoms: _183  and  _184
REMARK   69  A    between atoms: _187  and  _189
REMARK   70  A    between atoms: _189  and  _190
REMARK   71  A    between atoms: _189  and  _192
REMARK   72  A    between atoms: _192  and  _193
REMARK   73  A    between atoms: _199  and  _201
REMARK   74  A    between atoms: _201  and  _202
REMARK   75  A    between atoms: _201  and  _204
REMARK   76  A    between atoms: _204  and  _205
REMARK   77  A    between atoms: _210  and  _212
REMARK   78  A    between atoms: _212  and  _213
REMARK   79  A    between atoms: _212  and  _215
REMARK   80  A    between atoms: _215  and  _216
REMARK   81  A    between atoms: _219  and  _221
REMARK   82  A    between atoms: _221  and  _222
REMARK   83  A    between atoms: _224  and  _226
REMARK   84  A    between atoms: _226  and  _227
REMARK   85  A    between atoms: _230  and  _232
REMARK   86  A    between atoms: _232  and  _233
REMARK                            x       y       z     vdW  Elec       q    Type
REMARK                         _______ _______ _______ _____ _____    ______ ____
ROOT
ATOM      1  O   HOH     1      62.768  38.935   0.078  0.00  0.00    +0.000 OA
ENDROOT
TORSDOF 0
REMARK  Name = ../refined-set-2016/4nra/4nra_pocket.pdb
REMARK  86 active torsions:
REMARK  status: ('A' for Active; 'I' for Inactive)
REMARK    1  A    between atoms: _1  and  _3
REMARK    2  A    between atoms: _3  and  _4
REMARK    3  A    between atoms: _7  and  _9
REMARK    4  A    between atoms: _9  and  _10
REMARK    5  A    between atoms: _9  and  _12
REMARK    6  A    between atoms: _12  and  _13
REMARK    7  A    between atoms: _24  and  _25
REMARK    8  A    between atoms: _30  and  _32
REMARK    9  A    between atoms: _32  and  _33
REMARK   10  A    between atoms: _32  and  _35
REMARK   11  A    between atoms: _35  and  _36
REMARK   12  A    between atoms: _42  and  _44
REMARK   13  A    between atoms: _44  and  _45
REMARK   14  A    between atoms: _44  and  _47
REMARK   15  A    between atoms: _47  and  _48
REMARK   16  A    between atoms: _51  and  _53
REMARK   17  A    between atoms: _53  and  _54
REMARK   18  A    between atoms: _53  and  _56
REMARK   19  A    between atoms: _56  and  _57
REMARK   20  A    between atoms: _61  and  _62
REMARK   21  A    between atoms: _67  and  _69
REMARK   22  A    between atoms: _69  and  _70
REMARK   23  A    between atoms: _69  and  _72
REMARK   24  A    between atoms: _75  and  _77
REMARK   25  A    between atoms: _77  and  _78
REMARK   26  A    between atoms: _77  and  _80
REMARK   27  A    between atoms: _80  and  _81
REMARK   28  A    between atoms: _86  and  _88
REMARK   29  A    between atoms: _88  and  _89
REMARK   30  A    between atoms: _88  and  _91
REMARK   31  A    between atoms: _95  and  _96
REMARK   32  A    between atoms: _101  and  _103
REMARK   33  A    between atoms: _103  and  _104
REMARK   34  A    between atoms: _103  and  _106
REMARK   35  A    between atoms: _106  and  _107
REMARK   36  A    between atoms: _112  and  _113
REMARK   37  A    between atoms: _115  and  _117
REMARK   38  A    between atoms: _117  and  _118
REMARK   39  A    between atoms: _117  and  _120
REMARK   40  A    between atoms: _120  and  _121
REMARK   41  A    between atoms: _124  and  _126
REMARK   42  A    between atoms: _126  and  _127
REMARK   43  A    between atoms: _126  and  _129
REMARK   44  A    between atoms: _129  and  _130
REMARK   45  A    between atoms: _130  and  _131
REMARK   46  A    between atoms: _133  and  _135
REMARK   47  A    between atoms: _135  and  _136
REMARK   48  A    between atoms: _135  and  _138
REMARK   49  A    between atoms: _138  and  _139
REMARK   50  A    between atoms: _142  and  _144
REMARK   51  A    between atoms: _144  and  _145
REMARK   52  A    between atoms: _144  and  _147
REMARK   53  A    between atoms: _150  and  _152
REMARK   54  A    between atoms: _152  and  _153
REMARK   55  A    between atoms: _152  and  _155
REMARK   56  A    between atoms: _155  and  _156
REMARK   57  A    between atoms: _161  and  _163
REMARK   58  A    between atoms: _163  and  _164
REMARK   59  A    between atoms: _163  and  _166
REMARK   60  A    between atoms: _168  and  _170
REMARK   61  A    between atoms: _170  and  _171
REMARK   62  A    between atoms: _170  and  _173
REMARK   63  A    between atoms: _173  and  _174
REMARK   64  A    between atoms: _174  and  _175
REMARK   65  A    between atoms: _178  and  _180
REMARK   66  A    between atoms: _180  and  _181
REMARK   67  A    between atoms: _180  and  _183
REMARK   68  A    between atoms: _183  and  _184
REMARK   69  A    between atoms: _187  and  _189
REMARK   70  A    between atoms: _189  and  _190
REMARK   71  A    between atoms: _189  and  _192
REMARK   72  A    between atoms: _192  and  _193
REMARK   73  A    between atoms: _199  and  _201
REMARK   74  A    between atoms: _201  and  _202
REMARK   75  A    between atoms: _201  and  _204
REMARK   76  A    between atoms: _204  and  _205
REMARK   77  A    between atoms: _210  and  _212
REMARK   78  A    between atoms: _212  and  _213
REMARK   79  A    between atoms: _212  and  _215
REMARK   80  A    between atoms: _215  and  _216
REMARK   81  A    between atoms: _219  and  _221
REMARK   82  A    between atoms: _221  and  _222
REMARK   83  A    between atoms: _224  and  _226
REMARK   84  A    between atoms: _226  and  _227
REMARK   85  A    between atoms: _230  and  _232
REMARK   86  A    between atoms: _232  and  _233
REMARK                            x       y       z     vdW  Elec       q    Type
REMARK                         _______ _______ _______ _____ _____    ______ ____
ROOT
ATOM      1  O   HOH     1      73.660  36.631   6.438  0.00  0.00    +0.000 OA
ENDROOT
TORSDOF 0
REMARK  Name = ../refined-set-2016/4nra/4nra_pocket.pdb
REMARK  86 active torsions:
REMARK  status: ('A' for Active; 'I' for Inactive)
REMARK    1  A    between atoms: _1  and  _3
REMARK    2  A    between atoms: _3  and  _4
REMARK    3  A    between atoms: _7  and  _9
REMARK    4  A    between atoms: _9  and  _10
REMARK    5  A    between atoms: _9  and  _12
REMARK    6  A    between atoms: _12  and  _13
REMARK    7  A    between atoms: _24  and  _25
REMARK    8  A    between atoms: _30  and  _32
REMARK    9  A    between atoms: _32  and  _33
REMARK   10  A    between atoms: _32  and  _35
REMARK   11  A    between atoms: _35  and  _36
REMARK   12  A    between atoms: _42  and  _44
REMARK   13  A    between atoms: _44  and  _45
REMARK   14  A    between atoms: _44  and  _47
REMARK   15  A    between atoms: _47  and  _48
REMARK   16  A    between atoms: _51  and  _53
REMARK   17  A    between atoms: _53  and  _54
REMARK   18  A    between atoms: _53  and  _56
REMARK   19  A    between atoms: _56  and  _57
REMARK   20  A    between atoms: _61  and  _62
REMARK   21  A    between atoms: _67  and  _69
REMARK   22  A    between atoms: _69  and  _70
REMARK   23  A    between atoms: _69  and  _72
REMARK   24  A    between atoms: _75  and  _77
REMARK   25  A    between atoms: _77  and  _78
REMARK   26  A    between atoms: _77  and  _80
REMARK   27  A    between atoms: _80  and  _81
REMARK   28  A    between atoms: _86  and  _88
REMARK   29  A    between atoms: _88  and  _89
REMARK   30  A    between atoms: _88  and  _91
REMARK   31  A    between atoms: _95  and  _96
REMARK   32  A    between atoms: _101  and  _103
REMARK   33  A    between atoms: _103  and  _104
REMARK   34  A    between atoms: _103  and  _106
REMARK   35  A    between atoms: _106  and  _107
REMARK   36  A    between atoms: _112  and  _113
REMARK   37  A    between atoms: _115  and  _117
REMARK   38  A    between atoms: _117  and  _118
REMARK   39  A    between atoms: _117  and  _120
REMARK   40  A    between atoms: _120  and  _121
REMARK   41  A    between atoms: _124  and  _126
REMARK   42  A    between atoms: _126  and  _127
REMARK   43  A    between atoms: _126  and  _129
REMARK   44  A    between atoms: _129  and  _130
REMARK   45  A    between atoms: _130  and  _131
REMARK   46  A    between atoms: _133  and  _135
REMARK   47  A    between atoms: _135  and  _136
REMARK   48  A    between atoms: _135  and  _138
REMARK   49  A    between atoms: _138  and  _139
REMARK   50  A    between atoms: _142  and  _144
REMARK   51  A    between atoms: _144  and  _145
REMARK   52  A    between atoms: _144  and  _147
REMARK   53  A    between atoms: _150  and  _152
REMARK   54  A    between atoms: _152  and  _153
REMARK   55  A    between atoms: _152  and  _155
REMARK   56  A    between atoms: _155  and  _156
REMARK   57  A    between atoms: _161  and  _163
REMARK   58  A    between atoms: _163  and  _164
REMARK   59  A    between atoms: _163  and  _166
REMARK   60  A    between atoms: _168  and  _170
REMARK   61  A    between atoms: _170  and  _171
REMARK   62  A    between atoms: _170  and  _173
REMARK   63  A    between atoms: _173  and  _174
REMARK   64  A    between atoms: _174  and  _175
REMARK   65  A    between atoms: _178  and  _180
REMARK   66  A    between atoms: _180  and  _181
REMARK   67  A    between atoms: _180  and  _183
REMARK   68  A    between atoms: _183  and  _184
REMARK   69  A    between atoms: _187  and  _189
REMARK   70  A    between atoms: _189  and  _190
REMARK   71  A    between atoms: _189  and  _192
REMARK   72  A    between atoms: _192  and  _193
REMARK   73  A    between atoms: _199  and  _201
REMARK   74  A    between atoms: _201  and  _202
REMARK   75  A    between atoms: _201  and  _204
REMARK   76  A    between atoms: _204  and  _205
REMARK   77  A    between atoms: _210  and  _212
REMARK   78  A    between atoms: _212  and  _213
REMARK   79  A    between atoms: _212  and  _215
REMARK   80  A    between atoms: _215  and  _216
REMARK   81  A    between atoms: _219  and  _221
REMARK   82  A    between atoms: _221  and  _222
REMARK   83  A    between atoms: _224  and  _226
REMARK   84  A    between atoms: _226  and  _227
REMARK   85  A    between atoms: _230  and  _232
REMARK   86  A    between atoms: _232  and  _233
REMARK                            x       y       z     vdW  Elec       q    Type
REMARK                         _______ _______ _______ _____ _____    ______ ____
ROOT
ATOM      1  O   HOH     1      75.181  34.147   3.701  0.00  0.00    +0.000 OA
ENDROOT
TORSDOF 0
REMARK  Name = ../refined-set-2016/4nra/4nra_pocket.pdb
REMARK  86 active torsions:
REMARK  status: ('A' for Active; 'I' for Inactive)
REMARK    1  A    between atoms: _1  and  _3
REMARK    2  A    between atoms: _3  and  _4
REMARK    3  A    between atoms: _7  and  _9
REMARK    4  A    between atoms: _9  and  _10
REMARK    5  A    between atoms: _9  and  _12
REMARK    6  A    between atoms: _12  and  _13
REMARK    7  A    between atoms: _24  and  _25
REMARK    8  A    between atoms: _30  and  _32
REMARK    9  A    between atoms: _32  and  _33
REMARK   10  A    between atoms: _32  and  _35
REMARK   11  A    between atoms: _35  and  _36
REMARK   12  A    between atoms: _42  and  _44
REMARK   13  A    between atoms: _44  and  _45
REMARK   14  A    between atoms: _44  and  _47
REMARK   15  A    between atoms: _47  and  _48
REMARK   16  A    between atoms: _51  and  _53
REMARK   17  A    between atoms: _53  and  _54
REMARK   18  A    between atoms: _53  and  _56
REMARK   19  A    between atoms: _56  and  _57
REMARK   20  A    between atoms: _61  and  _62
REMARK   21  A    between atoms: _67  and  _69
REMARK   22  A    between atoms: _69  and  _70
REMARK   23  A    between atoms: _69  and  _72
REMARK   24  A    between atoms: _75  and  _77
REMARK   25  A    between atoms: _77  and  _78
REMARK   26  A    between atoms: _77  and  _80
REMARK   27  A    between atoms: _80  and  _81
REMARK   28  A    between atoms: _86  and  _88
REMARK   29  A    between atoms: _88  and  _89
REMARK   30  A    between atoms: _88  and  _91
REMARK   31  A    between atoms: _95  and  _96
REMARK   32  A    between atoms: _101  and  _103
REMARK   33  A    between atoms: _103  and  _104
REMARK   34  A    between atoms: _103  and  _106
REMARK   35  A    between atoms: _106  and  _107
REMARK   36  A    between atoms: _112  and  _113
REMARK   37  A    between atoms: _115  and  _117
REMARK   38  A    between atoms: _117  and  _118
REMARK   39  A    between atoms: _117  and  _120
REMARK   40  A    between atoms: _120  and  _121
REMARK   41  A    between atoms: _124  and  _126
REMARK   42  A    between atoms: _126  and  _127
REMARK   43  A    between atoms: _126  and  _129
REMARK   44  A    between atoms: _129  and  _130
REMARK   45  A    between atoms: _130  and  _131
REMARK   46  A    between atoms: _133  and  _135
REMARK   47  A    between atoms: _135  and  _136
REMARK   48  A    between atoms: _135  and  _138
REMARK   49  A    between atoms: _138  and  _139
REMARK   50  A    between atoms: _142  and  _144
REMARK   51  A    between atoms: _144  and  _145
REMARK   52  A    between atoms: _144  and  _147
REMARK   53  A    between atoms: _150  and  _152
REMARK   54  A    between atoms: _152  and  _153
REMARK   55  A    between atoms: _152  and  _155
REMARK   56  A    between atoms: _155  and  _156
REMARK   57  A    between atoms: _161  and  _163
REMARK   58  A    between atoms: _163  and  _164
REMARK   59  A    between atoms: _163  and  _166
REMARK   60  A    between atoms: _168  and  _170
REMARK   61  A    between atoms: _170  and  _171
REMARK   62  A    between atoms: _170  and  _173
REMARK   63  A    between atoms: _173  and  _174
REMARK   64  A    between atoms: _174  and  _175
REMARK   65  A    between atoms: _178  and  _180
REMARK   66  A    between atoms: _180  and  _181
REMARK   67  A    between atoms: _180  and  _183
REMARK   68  A    between atoms: _183  and  _184
REMARK   69  A    between atoms: _187  and  _189
REMARK   70  A    between atoms: _189  and  _190
REMARK   71  A    between atoms: _189  and  _192
REMARK   72  A    between atoms: _192  and  _193
REMARK   73  A    between atoms: _199  and  _201
REMARK   74  A    between atoms: _201  and  _202
REMARK   75  A    between atoms: _201  and  _204
REMARK   76  A    between atoms: _204  and  _205
REMARK   77  A    between atoms: _210  and  _212
REMARK   78  A    between atoms: _212  and  _213
REMARK   79  A    between atoms: _212  and  _215
REMARK   80  A    between atoms: _215  and  _216
REMARK   81  A    between atoms: _219  and  _221
REMARK   82  A    between atoms: _221  and  _222
REMARK   83  A    between atoms: _224  and  _226
REMARK   84  A    between atoms: _226  and  _227
REMARK   85  A    between atoms: _230  and  _232
REMARK   86  A    between atoms: _232  and  _233
REMARK                            x       y       z     vdW  Elec       q    Type
REMARK                         _______ _______ _______ _____ _____    ______ ____
ROOT
ATOM      1  O   HOH     1      71.985  36.986   4.409  0.00  0.00    +0.000 OA
ENDROOT
TORSDOF 0
REMARK  Name = ../refined-set-2016/4nra/4nra_pocket.pdb
REMARK  86 active torsions:
REMARK  status: ('A' for Active; 'I' for Inactive)
REMARK    1  A    between atoms: _1  and  _3
REMARK    2  A    between atoms: _3  and  _4
REMARK    3  A    between atoms: _7  and  _9
REMARK    4  A    between atoms: _9  and  _10
REMARK    5  A    between atoms: _9  and  _12
REMARK    6  A    between atoms: _12  and  _13
REMARK    7  A    between atoms: _24  and  _25
REMARK    8  A    between atoms: _30  and  _32
REMARK    9  A    between atoms: _32  and  _33
REMARK   10  A    between atoms: _32  and  _35
REMARK   11  A    between atoms: _35  and  _36
REMARK   12  A    between atoms: _42  and  _44
REMARK   13  A    between atoms: _44  and  _45
REMARK   14  A    between atoms: _44  and  _47
REMARK   15  A    between atoms: _47  and  _48
REMARK   16  A    between atoms: _51  and  _53
REMARK   17  A    between atoms: _53  and  _54
REMARK   18  A    between atoms: _53  and  _56
REMARK   19  A    between atoms: _56  and  _57
REMARK   20  A    between atoms: _61  and  _62
REMARK   21  A    between atoms: _67  and  _69
REMARK   22  A    between atoms: _69  and  _70
REMARK   23  A    between atoms: _69  and  _72
REMARK   24  A    between atoms: _75  and  _77
REMARK   25  A    between atoms: _77  and  _78
REMARK   26  A    between atoms: _77  and  _80
REMARK   27  A    between atoms: _80  and  _81
REMARK   28  A    between atoms: _86  and  _88
REMARK   29  A    between atoms: _88  and  _89
REMARK   30  A    between atoms: _88  and  _91
REMARK   31  A    between atoms: _95  and  _96
REMARK   32  A    between atoms: _101  and  _103
REMARK   33  A    between atoms: _103  and  _104
REMARK   34  A    between atoms: _103  and  _106
REMARK   35  A    between atoms: _106  and  _107
REMARK   36  A    between atoms: _112  and  _113
REMARK   37  A    between atoms: _115  and  _117
REMARK   38  A    between atoms: _117  and  _118
REMARK   39  A    between atoms: _117  and  _120
REMARK   40  A    between atoms: _120  and  _121
REMARK   41  A    between atoms: _124  and  _126
REMARK   42  A    between atoms: _126  and  _127
REMARK   43  A    between atoms: _126  and  _129
REMARK   44  A    between atoms: _129  and  _130
REMARK   45  A    between atoms: _130  and  _131
REMARK   46  A    between atoms: _133  and  _135
REMARK   47  A    between atoms: _135  and  _136
REMARK   48  A    between atoms: _135  and  _138
REMARK   49  A    between atoms: _138  and  _139
REMARK   50  A    between atoms: _142  and  _144
REMARK   51  A    between atoms: _144  and  _145
REMARK   52  A    between atoms: _144  and  _147
REMARK   53  A    between atoms: _150  and  _152
REMARK   54  A    between atoms: _152  and  _153
REMARK   55  A    between atoms: _152  and  _155
REMARK   56  A    between atoms: _155  and  _156
REMARK   57  A    between atoms: _161  and  _163
REMARK   58  A    between atoms: _163  and  _164
REMARK   59  A    between atoms: _163  and  _166
REMARK   60  A    between atoms: _168  and  _170
REMARK   61  A    between atoms: _170  and  _171
REMARK   62  A    between atoms: _170  and  _173
REMARK   63  A    between atoms: _173  and  _174
REMARK   64  A    between atoms: _174  and  _175
REMARK   65  A    between atoms: _178  and  _180
REMARK   66  A    between atoms: _180  and  _181
REMARK   67  A    between atoms: _180  and  _183
REMARK   68  A    between atoms: _183  and  _184
REMARK   69  A    between atoms: _187  and  _189
REMARK   70  A    between atoms: _189  and  _190
REMARK   71  A    between atoms: _189  and  _192
REMARK   72  A    between atoms: _192  and  _193
REMARK   73  A    between atoms: _199  and  _201
REMARK   74  A    between atoms: _201  and  _202
REMARK   75  A    between atoms: _201  and  _204
REMARK   76  A    between atoms: _204  and  _205
REMARK   77  A    between atoms: _210  and  _212
REMARK   78  A    between atoms: _212  and  _213
REMARK   79  A    between atoms: _212  and  _215
REMARK   80  A    between atoms: _215  and  _216
REMARK   81  A    between atoms: _219  and  _221
REMARK   82  A    between atoms: _221  and  _222
REMARK   83  A    between atoms: _224  and  _226
REMARK   84  A    between atoms: _226  and  _227
REMARK   85  A    between atoms: _230  and  _232
REMARK   86  A    between atoms: _232  and  _233
REMARK                            x       y       z     vdW  Elec       q    Type
REMARK                         _______ _______ _______ _____ _____    ______ ____
ROOT
ATOM      1  O   HOH     1      70.944  42.817  -3.582  0.00  0.00    +0.000 OA
ENDROOT
TORSDOF 0
REMARK  Name = ../refined-set-2016/4nra/4nra_pocket.pdb
REMARK  86 active torsions:
REMARK  status: ('A' for Active; 'I' for Inactive)
REMARK    1  A    between atoms: _1  and  _3
REMARK    2  A    between atoms: _3  and  _4
REMARK    3  A    between atoms: _7  and  _9
REMARK    4  A    between atoms: _9  and  _10
REMARK    5  A    between atoms: _9  and  _12
REMARK    6  A    between atoms: _12  and  _13
REMARK    7  A    between atoms: _24  and  _25
REMARK    8  A    between atoms: _30  and  _32
REMARK    9  A    between atoms: _32  and  _33
REMARK   10  A    between atoms: _32  and  _35
REMARK   11  A    between atoms: _35  and  _36
REMARK   12  A    between atoms: _42  and  _44
REMARK   13  A    between atoms: _44  and  _45
REMARK   14  A    between atoms: _44  and  _47
REMARK   15  A    between atoms: _47  and  _48
REMARK   16  A    between atoms: _51  and  _53
REMARK   17  A    between atoms: _53  and  _54
REMARK   18  A    between atoms: _53  and  _56
REMARK   19  A    between atoms: _56  and  _57
REMARK   20  A    between atoms: _61  and  _62
REMARK   21  A    between atoms: _67  and  _69
REMARK   22  A    between atoms: _69  and  _70
REMARK   23  A    between atoms: _69  and  _72
REMARK   24  A    between atoms: _75  and  _77
REMARK   25  A    between atoms: _77  and  _78
REMARK   26  A    between atoms: _77  and  _80
REMARK   27  A    between atoms: _80  and  _81
REMARK   28  A    between atoms: _86  and  _88
REMARK   29  A    between atoms: _88  and  _89
REMARK   30  A    between atoms: _88  and  _91
REMARK   31  A    between atoms: _95  and  _96
REMARK   32  A    between atoms: _101  and  _103
REMARK   33  A    between atoms: _103  and  _104
REMARK   34  A    between atoms: _103  and  _106
REMARK   35  A    between atoms: _106  and  _107
REMARK   36  A    between atoms: _112  and  _113
REMARK   37  A    between atoms: _115  and  _117
REMARK   38  A    between atoms: _117  and  _118
REMARK   39  A    between atoms: _117  and  _120
REMARK   40  A    between atoms: _120  and  _121
REMARK   41  A    between atoms: _124  and  _126
REMARK   42  A    between atoms: _126  and  _127
REMARK   43  A    between atoms: _126  and  _129
REMARK   44  A    between atoms: _129  and  _130
REMARK   45  A    between atoms: _130  and  _131
REMARK   46  A    between atoms: _133  and  _135
REMARK   47  A    between atoms: _135  and  _136
REMARK   48  A    between atoms: _135  and  _138
REMARK   49  A    between atoms: _138  and  _139
REMARK   50  A    between atoms: _142  and  _144
REMARK   51  A    between atoms: _144  and  _145
REMARK   52  A    between atoms: _144  and  _147
REMARK   53  A    between atoms: _150  and  _152
REMARK   54  A    between atoms: _152  and  _153
REMARK   55  A    between atoms: _152  and  _155
REMARK   56  A    between atoms: _155  and  _156
REMARK   57  A    between atoms: _161  and  _163
REMARK   58  A    between atoms: _163  and  _164
REMARK   59  A    between atoms: _163  and  _166
REMARK   60  A    between atoms: _168  and  _170
REMARK   61  A    between atoms: _170  and  _171
REMARK   62  A    between atoms: _170  and  _173
REMARK   63  A    between atoms: _173  and  _174
REMARK   64  A    between atoms: _174  and  _175
REMARK   65  A    between atoms: _178  and  _180
REMARK   66  A    between atoms: _180  and  _181
REMARK   67  A    between atoms: _180  and  _183
REMARK   68  A    between atoms: _183  and  _184
REMARK   69  A    between atoms: _187  and  _189
REMARK   70  A    between atoms: _189  and  _190
REMARK   71  A    between atoms: _189  and  _192
REMARK   72  A    between atoms: _192  and  _193
REMARK   73  A    between atoms: _199  and  _201
REMARK   74  A    between atoms: _201  and  _202
REMARK   75  A    between atoms: _201  and  _204
REMARK   76  A    between atoms: _204  and  _205
REMARK   77  A    between atoms: _210  and  _212
REMARK   78  A    between atoms: _212  and  _213
REMARK   79  A    between atoms: _212  and  _215
REMARK   80  A    between atoms: _215  and  _216
REMARK   81  A    between atoms: _219  and  _221
REMARK   82  A    between atoms: _221  and  _222
REMARK   83  A    between atoms: _224  and  _226
REMARK   84  A    between atoms: _226  and  _227
REMARK   85  A    between atoms: _230  and  _232
REMARK   86  A    between atoms: _232  and  _233
REMARK                            x       y       z     vdW  Elec       q    Type
REMARK                         _______ _______ _______ _____ _____    ______ ____
ROOT
ATOM      1  O   HOH     1      67.624  41.611  -7.024  0.00  0.00    +0.000 OA
ENDROOT
TORSDOF 0
REMARK  Name = ../refined-set-2016/4nra/4nra_pocket.pdb
REMARK  86 active torsions:
REMARK  status: ('A' for Active; 'I' for Inactive)
REMARK    1  A    between atoms: _1  and  _3
REMARK    2  A    between atoms: _3  and  _4
REMARK    3  A    between atoms: _7  and  _9
REMARK    4  A    between atoms: _9  and  _10
REMARK    5  A    between atoms: _9  and  _12
REMARK    6  A    between atoms: _12  and  _13
REMARK    7  A    between atoms: _24  and  _25
REMARK    8  A    between atoms: _30  and  _32
REMARK    9  A    between atoms: _32  and  _33
REMARK   10  A    between atoms: _32  and  _35
REMARK   11  A    between atoms: _35  and  _36
REMARK   12  A    between atoms: _42  and  _44
REMARK   13  A    between atoms: _44  and  _45
REMARK   14  A    between atoms: _44  and  _47
REMARK   15  A    between atoms: _47  and  _48
REMARK   16  A    between atoms: _51  and  _53
REMARK   17  A    between atoms: _53  and  _54
REMARK   18  A    between atoms: _53  and  _56
REMARK   19  A    between atoms: _56  and  _57
REMARK   20  A    between atoms: _61  and  _62
REMARK   21  A    between atoms: _67  and  _69
REMARK   22  A    between atoms: _69  and  _70
REMARK   23  A    between atoms: _69  and  _72
REMARK   24  A    between atoms: _75  and  _77
REMARK   25  A    between atoms: _77  and  _78
REMARK   26  A    between atoms: _77  and  _80
REMARK   27  A    between atoms: _80  and  _81
REMARK   28  A    between atoms: _86  and  _88
REMARK   29  A    between atoms: _88  and  _89
REMARK   30  A    between atoms: _88  and  _91
REMARK   31  A    between atoms: _95  and  _96
REMARK   32  A    between atoms: _101  and  _103
REMARK   33  A    between atoms: _103  and  _104
REMARK   34  A    between atoms: _103  and  _106
REMARK   35  A    between atoms: _106  and  _107
REMARK   36  A    between atoms: _112  and  _113
REMARK   37  A    between atoms: _115  and  _117
REMARK   38  A    between atoms: _117  and  _118
REMARK   39  A    between atoms: _117  and  _120
REMARK   40  A    between atoms: _120  and  _121
REMARK   41  A    between atoms: _124  and  _126
REMARK   42  A    between atoms: _126  and  _127
REMARK   43  A    between atoms: _126  and  _129
REMARK   44  A    between atoms: _129  and  _130
REMARK   45  A    between atoms: _130  and  _131
REMARK   46  A    between atoms: _133  and  _135
REMARK   47  A    between atoms: _135  and  _136
REMARK   48  A    between atoms: _135  and  _138
REMARK   49  A    between atoms: _138  and  _139
REMARK   50  A    between atoms: _142  and  _144
REMARK   51  A    between atoms: _144  and  _145
REMARK   52  A    between atoms: _144  and  _147
REMARK   53  A    between atoms: _150  and  _152
REMARK   54  A    between atoms: _152  and  _153
REMARK   55  A    between atoms: _152  and  _155
REMARK   56  A    between atoms: _155  and  _156
REMARK   57  A    between atoms: _161  and  _163
REMARK   58  A    between atoms: _163  and  _164
REMARK   59  A    between atoms: _163  and  _166
REMARK   60  A    between atoms: _168  and  _170
REMARK   61  A    between atoms: _170  and  _171
REMARK   62  A    between atoms: _170  and  _173
REMARK   63  A    between atoms: _173  and  _174
REMARK   64  A    between atoms: _174  and  _175
REMARK   65  A    between atoms: _178  and  _180
REMARK   66  A    between atoms: _180  and  _181
REMARK   67  A    between atoms: _180  and  _183
REMARK   68  A    between atoms: _183  and  _184
REMARK   69  A    between atoms: _187  and  _189
REMARK   70  A    between atoms: _189  and  _190
REMARK   71  A    between atoms: _189  and  _192
REMARK   72  A    between atoms: _192  and  _193
REMARK   73  A    between atoms: _199  and  _201
REMARK   74  A    between atoms: _201  and  _202
REMARK   75  A    between atoms: _201  and  _204
REMARK   76  A    between atoms: _204  and  _205
REMARK   77  A    between atoms: _210  and  _212
REMARK   78  A    between atoms: _212  and  _213
REMARK   79  A    between atoms: _212  and  _215
REMARK   80  A    between atoms: _215  and  _216
REMARK   81  A    between atoms: _219  and  _221
REMARK   82  A    between atoms: _221  and  _222
REMARK   83  A    between atoms: _224  and  _226
REMARK   84  A    between atoms: _226  and  _227
REMARK   85  A    between atoms: _230  and  _232
REMARK   86  A    between atoms: _232  and  _233
REMARK                            x       y       z     vdW  Elec       q    Type
REMARK                         _______ _______ _______ _____ _____    ______ ____
ROOT
ATOM      1  O   HOH     1      66.401  44.579  -4.996  0.00  0.00    +0.000 OA
ENDROOT
TORSDOF 0
REMARK  Name = ../refined-set-2016/4nra/4nra_pocket.pdb
REMARK  86 active torsions:
REMARK  status: ('A' for Active; 'I' for Inactive)
REMARK    1  A    between atoms: _1  and  _3
REMARK    2  A    between atoms: _3  and  _4
REMARK    3  A    between atoms: _7  and  _9
REMARK    4  A    between atoms: _9  and  _10
REMARK    5  A    between atoms: _9  and  _12
REMARK    6  A    between atoms: _12  and  _13
REMARK    7  A    between atoms: _24  and  _25
REMARK    8  A    between atoms: _30  and  _32
REMARK    9  A    between atoms: _32  and  _33
REMARK   10  A    between atoms: _32  and  _35
REMARK   11  A    between atoms: _35  and  _36
REMARK   12  A    between atoms: _42  and  _44
REMARK   13  A    between atoms: _44  and  _45
REMARK   14  A    between atoms: _44  and  _47
REMARK   15  A    between atoms: _47  and  _48
REMARK   16  A    between atoms: _51  and  _53
REMARK   17  A    between atoms: _53  and  _54
REMARK   18  A    between atoms: _53  and  _56
REMARK   19  A    between atoms: _56  and  _57
REMARK   20  A    between atoms: _61  and  _62
REMARK   21  A    between atoms: _67  and  _69
REMARK   22  A    between atoms: _69  and  _70
REMARK   23  A    between atoms: _69  and  _72
REMARK   24  A    between atoms: _75  and  _77
REMARK   25  A    between atoms: _77  and  _78
REMARK   26  A    between atoms: _77  and  _80
REMARK   27  A    between atoms: _80  and  _81
REMARK   28  A    between atoms: _86  and  _88
REMARK   29  A    between atoms: _88  and  _89
REMARK   30  A    between atoms: _88  and  _91
REMARK   31  A    between atoms: _95  and  _96
REMARK   32  A    between atoms: _101  and  _103
REMARK   33  A    between atoms: _103  and  _104
REMARK   34  A    between atoms: _103  and  _106
REMARK   35  A    between atoms: _106  and  _107
REMARK   36  A    between atoms: _112  and  _113
REMARK   37  A    between atoms: _115  and  _117
REMARK   38  A    between atoms: _117  and  _118
REMARK   39  A    between atoms: _117  and  _120
REMARK   40  A    between atoms: _120  and  _121
REMARK   41  A    between atoms: _124  and  _126
REMARK   42  A    between atoms: _126  and  _127
REMARK   43  A    between atoms: _126  and  _129
REMARK   44  A    between atoms: _129  and  _130
REMARK   45  A    between atoms: _130  and  _131
REMARK   46  A    between atoms: _133  and  _135
REMARK   47  A    between atoms: _135  and  _136
REMARK   48  A    between atoms: _135  and  _138
REMARK   49  A    between atoms: _138  and  _139
REMARK   50  A    between atoms: _142  and  _144
REMARK   51  A    between atoms: _144  and  _145
REMARK   52  A    between atoms: _144  and  _147
REMARK   53  A    between atoms: _150  and  _152
REMARK   54  A    between atoms: _152  and  _153
REMARK   55  A    between atoms: _152  and  _155
REMARK   56  A    between atoms: _155  and  _156
REMARK   57  A    between atoms: _161  and  _163
REMARK   58  A    between atoms: _163  and  _164
REMARK   59  A    between atoms: _163  and  _166
REMARK   60  A    between atoms: _168  and  _170
REMARK   61  A    between atoms: _170  and  _171
REMARK   62  A    between atoms: _170  and  _173
REMARK   63  A    between atoms: _173  and  _174
REMARK   64  A    between atoms: _174  and  _175
REMARK   65  A    between atoms: _178  and  _180
REMARK   66  A    between atoms: _180  and  _181
REMARK   67  A    between atoms: _180  and  _183
REMARK   68  A    between atoms: _183  and  _184
REMARK   69  A    between atoms: _187  and  _189
REMARK   70  A    between atoms: _189  and  _190
REMARK   71  A    between atoms: _189  and  _192
REMARK   72  A    between atoms: _192  and  _193
REMARK   73  A    between atoms: _199  and  _201
REMARK   74  A    between atoms: _201  and  _202
REMARK   75  A    between atoms: _201  and  _204
REMARK   76  A    between atoms: _204  and  _205
REMARK   77  A    between atoms: _210  and  _212
REMARK   78  A    between atoms: _212  and  _213
REMARK   79  A    between atoms: _212  and  _215
REMARK   80  A    between atoms: _215  and  _216
REMARK   81  A    between atoms: _219  and  _221
REMARK   82  A    between atoms: _221  and  _222
REMARK   83  A    between atoms: _224  and  _226
REMARK   84  A    between atoms: _226  and  _227
REMARK   85  A    between atoms: _230  and  _232
REMARK   86  A    between atoms: _232  and  _233
REMARK                            x       y       z     vdW  Elec       q    Type
REMARK                         _______ _______ _______ _____ _____    ______ ____
ROOT
ATOM      1  O   HOH     1      68.980  48.188   0.000  0.00  0.00    +0.000 OA
ENDROOT
TORSDOF 0
