REMARK  Name = ../refined-set-2016/3djx/3djx_pocket.pdb
REMARK  133 active torsions:
REMARK  status: ('A' for Active; 'I' for Inactive)
REMARK    1  A    between atoms: _1  and  _3
REMARK    2  A    between atoms: _3  and  _4
REMARK    3  A    between atoms: _3  and  _6
REMARK    4  A    between atoms: _6  and  _7
REMARK    5  A    between atoms: _7  and  _8
REMARK    6  A    between atoms: _10  and  _12
REMARK    7  A    between atoms: _12  and  _13
REMARK    8  A    between atoms: _12  and  _15
REMARK    9  A    between atoms: _15  and  _16
REMARK   10  A    between atoms: _16  and  _17
REMARK   11  A    between atoms: _19  and  _21
REMARK   12  A    between atoms: _21  and  _22
REMARK   13  A    between atoms: _21  and  _24
REMARK   14  A    between atoms: _24  and  _25
REMARK   15  A    between atoms: _25  and  _26
REMARK   16  A    between atoms: _26  and  _27
REMARK   17  A    between atoms: _27  and  _28
REMARK   18  A    between atoms: _32  and  _34
REMARK   19  A    between atoms: _34  and  _35
REMARK   20  A    between atoms: _34  and  _37
REMARK   21  A    between atoms: _37  and  _38
REMARK   22  A    between atoms: _38  and  _39
REMARK   23  A    between atoms: _39  and  _40
REMARK   24  A    between atoms: _40  and  _41
REMARK   25  A    between atoms: _46  and  _47
REMARK   26  A    between atoms: _52  and  _54
REMARK   27  A    between atoms: _54  and  _55
REMARK   28  A    between atoms: _54  and  _57
REMARK   29  A    between atoms: _60  and  _62
REMARK   30  A    between atoms: _62  and  _63
REMARK   31  A    between atoms: _62  and  _65
REMARK   32  A    between atoms: _65  and  _66
REMARK   33  A    between atoms: _71  and  _73
REMARK   34  A    between atoms: _73  and  _74
REMARK   35  A    between atoms: _73  and  _76
REMARK   36  A    between atoms: _76  and  _77
REMARK   37  A    between atoms: _80  and  _82
REMARK   38  A    between atoms: _82  and  _83
REMARK   39  A    between atoms: _82  and  _85
REMARK   40  A    between atoms: _85  and  _86
REMARK   41  A    between atoms: _92  and  _94
REMARK   42  A    between atoms: _94  and  _95
REMARK   43  A    between atoms: _94  and  _97
REMARK   44  A    between atoms: _97  and  _98
REMARK   45  A    between atoms: _98  and  _99
REMARK   46  A    between atoms: _99  and  _100
REMARK   47  A    between atoms: _100  and  _101
REMARK   48  A    between atoms: _105  and  _107
REMARK   49  A    between atoms: _107  and  _108
REMARK   50  A    between atoms: _107  and  _110
REMARK   51  A    between atoms: _110  and  _111
REMARK   52  A    between atoms: _116  and  _118
REMARK   53  A    between atoms: _118  and  _119
REMARK   54  A    between atoms: _118  and  _121
REMARK   55  A    between atoms: _121  and  _122
REMARK   56  A    between atoms: _125  and  _127
REMARK   57  A    between atoms: _127  and  _128
REMARK   58  A    between atoms: _127  and  _130
REMARK   59  A    between atoms: _130  and  _131
REMARK   60  A    between atoms: _134  and  _136
REMARK   61  A    between atoms: _136  and  _137
REMARK   62  A    between atoms: _136  and  _139
REMARK   63  A    between atoms: _139  and  _140
REMARK   64  A    between atoms: _143  and  _145
REMARK   65  A    between atoms: _145  and  _146
REMARK   66  A    between atoms: _145  and  _148
REMARK   67  A    between atoms: _150  and  _152
REMARK   68  A    between atoms: _152  and  _153
REMARK   69  A    between atoms: _152  and  _155
REMARK   70  A    between atoms: _155  and  _156
REMARK   71  A    between atoms: _156  and  _157
REMARK   72  A    between atoms: _157  and  _158
REMARK   73  A    between atoms: _167  and  _169
REMARK   74  A    between atoms: _169  and  _170
REMARK   75  A    between atoms: _169  and  _172
REMARK   76  A    between atoms: _172  and  _173
REMARK   77  A    between atoms: _173  and  _174
REMARK   78  A    between atoms: _174  and  _175
REMARK   79  A    between atoms: _175  and  _176
REMARK   80  A    between atoms: _180  and  _182
REMARK   81  A    between atoms: _182  and  _183
REMARK   82  A    between atoms: _182  and  _185
REMARK   83  A    between atoms: _185  and  _186
REMARK   84  A    between atoms: _191  and  _193
REMARK   85  A    between atoms: _193  and  _194
REMARK   86  A    between atoms: _193  and  _196
REMARK   87  A    between atoms: _196  and  _197
REMARK   88  A    between atoms: _200  and  _202
REMARK   89  A    between atoms: _202  and  _203
REMARK   90  A    between atoms: _206  and  _208
REMARK   91  A    between atoms: _208  and  _209
REMARK   92  A    between atoms: _208  and  _211
REMARK   93  A    between atoms: _214  and  _216
REMARK   94  A    between atoms: _216  and  _217
REMARK   95  A    between atoms: _216  and  _219
REMARK   96  A    between atoms: _219  and  _220
REMARK   97  A    between atoms: _225  and  _227
REMARK   98  A    between atoms: _227  and  _228
REMARK   99  A    between atoms: _227  and  _230
REMARK  100  A    between atoms: _230  and  _231
REMARK  101  A    between atoms: _237  and  _239
REMARK  102  A    between atoms: _239  and  _240
REMARK  103  A    between atoms: _239  and  _242
REMARK  104  A    between atoms: _242  and  _243
REMARK  105  A    between atoms: _246  and  _248
REMARK  106  A    between atoms: _248  and  _249
REMARK  107  A    between atoms: _252  and  _254
REMARK  108  A    between atoms: _254  and  _255
REMARK  109  A    between atoms: _254  and  _257
REMARK  110  A    between atoms: _257  and  _258
REMARK  111  A    between atoms: _260  and  _262
REMARK  112  A    between atoms: _262  and  _263
REMARK  113  A    between atoms: _262  and  _265
REMARK  114  A    between atoms: _269  and  _271
REMARK  115  A    between atoms: _271  and  _272
REMARK  116  A    between atoms: _271  and  _274
REMARK  117  A    between atoms: _274  and  _275
REMARK  118  A    between atoms: _275  and  _276
REMARK  119  A    between atoms: _276  and  _277
REMARK  120  A    between atoms: _277  and  _278
REMARK  121  A    between atoms: _282  and  _284
REMARK  122  A    between atoms: _284  and  _285
REMARK  123  A    between atoms: _284  and  _287
REMARK  124  A    between atoms: _287  and  _288
REMARK  125  A    between atoms: _294  and  _296
REMARK  126  A    between atoms: _296  and  _297
REMARK  127  A    between atoms: _296  and  _299
REMARK  128  A    between atoms: _299  and  _300
REMARK  129  A    between atoms: _300  and  _301
REMARK  130  A    between atoms: _306  and  _308
REMARK  131  A    between atoms: _308  and  _309
REMARK  132  A    between atoms: _308  and  _311
REMARK  133  A    between atoms: _311  and  _312
REMARK                            x       y       z     vdW  Elec       q    Type
REMARK                         _______ _______ _______ _____ _____    ______ ____
ROOT
ATOM      1  CA  MET A   1      22.500  30.165   9.902  0.00  0.00    +0.134 C 
ENDROOT
BRANCH   1   2
ATOM      2  N   MET A   1      22.125  29.259   8.839  0.00  0.00    -0.239 NA
ATOM      3  H   MET A   1      21.375  29.534   8.173  0.00  0.00    +0.142 HD
ENDBRANCH   1   2
BRANCH   1   4
ATOM      4  C   MET A   1      22.237  29.504  11.250  0.00  0.00    +0.224 C 
ATOM      5  O   MET A   1      22.983  29.709  12.207  0.00  0.00    -0.287 OA
ENDBRANCH   1   4
BRANCH   1   6
ATOM      6  CB  MET A   1      21.752  31.494   9.782  0.00  0.00    +0.037 C 
BRANCH   6   7
ATOM      7  CG  MET A   1      22.169  32.312   8.548  0.00  0.00    +0.059 C 
BRANCH   7   8
ATOM      8  SD  MET A   1      23.908  32.771   8.568  0.00  0.00    -0.139 S 
ATOM      9  CE  MET A   1      23.836  34.161   9.714  0.00  0.00    +0.069 C 
ENDBRANCH   7   8
ENDBRANCH   6   7
ENDBRANCH   1   6
TORSDOF 5
REMARK  Name = ../refined-set-2016/3djx/3djx_pocket.pdb
REMARK  133 active torsions:
REMARK  status: ('A' for Active; 'I' for Inactive)
REMARK    1  A    between atoms: _1  and  _3
REMARK    2  A    between atoms: _3  and  _4
REMARK    3  A    between atoms: _3  and  _6
REMARK    4  A    between atoms: _6  and  _7
REMARK    5  A    between atoms: _7  and  _8
REMARK    6  A    between atoms: _10  and  _12
REMARK    7  A    between atoms: _12  and  _13
REMARK    8  A    between atoms: _12  and  _15
REMARK    9  A    between atoms: _15  and  _16
REMARK   10  A    between atoms: _16  and  _17
REMARK   11  A    between atoms: _19  and  _21
REMARK   12  A    between atoms: _21  and  _22
REMARK   13  A    between atoms: _21  and  _24
REMARK   14  A    between atoms: _24  and  _25
REMARK   15  A    between atoms: _25  and  _26
REMARK   16  A    between atoms: _26  and  _27
REMARK   17  A    between atoms: _27  and  _28
REMARK   18  A    between atoms: _32  and  _34
REMARK   19  A    between atoms: _34  and  _35
REMARK   20  A    between atoms: _34  and  _37
REMARK   21  A    between atoms: _37  and  _38
REMARK   22  A    between atoms: _38  and  _39
REMARK   23  A    between atoms: _39  and  _40
REMARK   24  A    between atoms: _40  and  _41
REMARK   25  A    between atoms: _46  and  _47
REMARK   26  A    between atoms: _52  and  _54
REMARK   27  A    between atoms: _54  and  _55
REMARK   28  A    between atoms: _54  and  _57
REMARK   29  A    between atoms: _60  and  _62
REMARK   30  A    between atoms: _62  and  _63
REMARK   31  A    between atoms: _62  and  _65
REMARK   32  A    between atoms: _65  and  _66
REMARK   33  A    between atoms: _71  and  _73
REMARK   34  A    between atoms: _73  and  _74
REMARK   35  A    between atoms: _73  and  _76
REMARK   36  A    between atoms: _76  and  _77
REMARK   37  A    between atoms: _80  and  _82
REMARK   38  A    between atoms: _82  and  _83
REMARK   39  A    between atoms: _82  and  _85
REMARK   40  A    between atoms: _85  and  _86
REMARK   41  A    between atoms: _92  and  _94
REMARK   42  A    between atoms: _94  and  _95
REMARK   43  A    between atoms: _94  and  _97
REMARK   44  A    between atoms: _97  and  _98
REMARK   45  A    between atoms: _98  and  _99
REMARK   46  A    between atoms: _99  and  _100
REMARK   47  A    between atoms: _100  and  _101
REMARK   48  A    between atoms: _105  and  _107
REMARK   49  A    between atoms: _107  and  _108
REMARK   50  A    between atoms: _107  and  _110
REMARK   51  A    between atoms: _110  and  _111
REMARK   52  A    between atoms: _116  and  _118
REMARK   53  A    between atoms: _118  and  _119
REMARK   54  A    between atoms: _118  and  _121
REMARK   55  A    between atoms: _121  and  _122
REMARK   56  A    between atoms: _125  and  _127
REMARK   57  A    between atoms: _127  and  _128
REMARK   58  A    between atoms: _127  and  _130
REMARK   59  A    between atoms: _130  and  _131
REMARK   60  A    between atoms: _134  and  _136
REMARK   61  A    between atoms: _136  and  _137
REMARK   62  A    between atoms: _136  and  _139
REMARK   63  A    between atoms: _139  and  _140
REMARK   64  A    between atoms: _143  and  _145
REMARK   65  A    between atoms: _145  and  _146
REMARK   66  A    between atoms: _145  and  _148
REMARK   67  A    between atoms: _150  and  _152
REMARK   68  A    between atoms: _152  and  _153
REMARK   69  A    between atoms: _152  and  _155
REMARK   70  A    between atoms: _155  and  _156
REMARK   71  A    between atoms: _156  and  _157
REMARK   72  A    between atoms: _157  and  _158
REMARK   73  A    between atoms: _167  and  _169
REMARK   74  A    between atoms: _169  and  _170
REMARK   75  A    between atoms: _169  and  _172
REMARK   76  A    between atoms: _172  and  _173
REMARK   77  A    between atoms: _173  and  _174
REMARK   78  A    between atoms: _174  and  _175
REMARK   79  A    between atoms: _175  and  _176
REMARK   80  A    between atoms: _180  and  _182
REMARK   81  A    between atoms: _182  and  _183
REMARK   82  A    between atoms: _182  and  _185
REMARK   83  A    between atoms: _185  and  _186
REMARK   84  A    between atoms: _191  and  _193
REMARK   85  A    between atoms: _193  and  _194
REMARK   86  A    between atoms: _193  and  _196
REMARK   87  A    between atoms: _196  and  _197
REMARK   88  A    between atoms: _200  and  _202
REMARK   89  A    between atoms: _202  and  _203
REMARK   90  A    between atoms: _206  and  _208
REMARK   91  A    between atoms: _208  and  _209
REMARK   92  A    between atoms: _208  and  _211
REMARK   93  A    between atoms: _214  and  _216
REMARK   94  A    between atoms: _216  and  _217
REMARK   95  A    between atoms: _216  and  _219
REMARK   96  A    between atoms: _219  and  _220
REMARK   97  A    between atoms: _225  and  _227
REMARK   98  A    between atoms: _227  and  _228
REMARK   99  A    between atoms: _227  and  _230
REMARK  100  A    between atoms: _230  and  _231
REMARK  101  A    between atoms: _237  and  _239
REMARK  102  A    between atoms: _239  and  _240
REMARK  103  A    between atoms: _239  and  _242
REMARK  104  A    between atoms: _242  and  _243
REMARK  105  A    between atoms: _246  and  _248
REMARK  106  A    between atoms: _248  and  _249
REMARK  107  A    between atoms: _252  and  _254
REMARK  108  A    between atoms: _254  and  _255
REMARK  109  A    between atoms: _254  and  _257
REMARK  110  A    between atoms: _257  and  _258
REMARK  111  A    between atoms: _260  and  _262
REMARK  112  A    between atoms: _262  and  _263
REMARK  113  A    between atoms: _262  and  _265
REMARK  114  A    between atoms: _269  and  _271
REMARK  115  A    between atoms: _271  and  _272
REMARK  116  A    between atoms: _271  and  _274
REMARK  117  A    between atoms: _274  and  _275
REMARK  118  A    between atoms: _275  and  _276
REMARK  119  A    between atoms: _276  and  _277
REMARK  120  A    between atoms: _277  and  _278
REMARK  121  A    between atoms: _282  and  _284
REMARK  122  A    between atoms: _284  and  _285
REMARK  123  A    between atoms: _284  and  _287
REMARK  124  A    between atoms: _287  and  _288
REMARK  125  A    between atoms: _294  and  _296
REMARK  126  A    between atoms: _296  and  _297
REMARK  127  A    between atoms: _296  and  _299
REMARK  128  A    between atoms: _299  and  _300
REMARK  129  A    between atoms: _300  and  _301
REMARK  130  A    between atoms: _306  and  _308
REMARK  131  A    between atoms: _308  and  _309
REMARK  132  A    between atoms: _308  and  _311
REMARK  133  A    between atoms: _311  and  _312
REMARK                            x       y       z     vdW  Elec       q    Type
REMARK                         _______ _______ _______ _____ _____    ______ ____
ROOT
ATOM      1  CA  MET A   1      25.008  32.062  13.978  0.00  0.00    +0.134 C 
ENDROOT
BRANCH   1   2
ATOM      2  N   MET A   1      24.936  30.612  14.061  0.00  0.00    -0.239 NA
ATOM      3  H   MET A   1      24.322  30.083  13.409  0.00  0.00    +0.142 HD
ENDBRANCH   1   2
BRANCH   1   4
ATOM      4  C   MET A   1      23.693  32.728  14.336  0.00  0.00    +0.224 C 
ATOM      5  O   MET A   1      23.446  33.879  13.965  0.00  0.00    -0.287 OA
ENDBRANCH   1   4
BRANCH   1   6
ATOM      6  CB  MET A   1      25.509  32.490  12.598  0.00  0.00    +0.037 C 
BRANCH   6   7
ATOM      7  CG  MET A   1      27.002  32.275  12.454  0.00  0.00    +0.059 C 
BRANCH   7   8
ATOM      8  SD  MET A   1      27.603  32.525  10.789  0.00  0.00    -0.139 S 
ATOM      9  CE  MET A   1      27.017  31.032   9.972  0.00  0.00    +0.069 C 
ENDBRANCH   7   8
ENDBRANCH   6   7
ENDBRANCH   1   6
TORSDOF 5
REMARK  Name = ../refined-set-2016/3djx/3djx_pocket.pdb
REMARK  133 active torsions:
REMARK  status: ('A' for Active; 'I' for Inactive)
REMARK    1  A    between atoms: _1  and  _3
REMARK    2  A    between atoms: _3  and  _4
REMARK    3  A    between atoms: _3  and  _6
REMARK    4  A    between atoms: _6  and  _7
REMARK    5  A    between atoms: _7  and  _8
REMARK    6  A    between atoms: _10  and  _12
REMARK    7  A    between atoms: _12  and  _13
REMARK    8  A    between atoms: _12  and  _15
REMARK    9  A    between atoms: _15  and  _16
REMARK   10  A    between atoms: _16  and  _17
REMARK   11  A    between atoms: _19  and  _21
REMARK   12  A    between atoms: _21  and  _22
REMARK   13  A    between atoms: _21  and  _24
REMARK   14  A    between atoms: _24  and  _25
REMARK   15  A    between atoms: _25  and  _26
REMARK   16  A    between atoms: _26  and  _27
REMARK   17  A    between atoms: _27  and  _28
REMARK   18  A    between atoms: _32  and  _34
REMARK   19  A    between atoms: _34  and  _35
REMARK   20  A    between atoms: _34  and  _37
REMARK   21  A    between atoms: _37  and  _38
REMARK   22  A    between atoms: _38  and  _39
REMARK   23  A    between atoms: _39  and  _40
REMARK   24  A    between atoms: _40  and  _41
REMARK   25  A    between atoms: _46  and  _47
REMARK   26  A    between atoms: _52  and  _54
REMARK   27  A    between atoms: _54  and  _55
REMARK   28  A    between atoms: _54  and  _57
REMARK   29  A    between atoms: _60  and  _62
REMARK   30  A    between atoms: _62  and  _63
REMARK   31  A    between atoms: _62  and  _65
REMARK   32  A    between atoms: _65  and  _66
REMARK   33  A    between atoms: _71  and  _73
REMARK   34  A    between atoms: _73  and  _74
REMARK   35  A    between atoms: _73  and  _76
REMARK   36  A    between atoms: _76  and  _77
REMARK   37  A    between atoms: _80  and  _82
REMARK   38  A    between atoms: _82  and  _83
REMARK   39  A    between atoms: _82  and  _85
REMARK   40  A    between atoms: _85  and  _86
REMARK   41  A    between atoms: _92  and  _94
REMARK   42  A    between atoms: _94  and  _95
REMARK   43  A    between atoms: _94  and  _97
REMARK   44  A    between atoms: _97  and  _98
REMARK   45  A    between atoms: _98  and  _99
REMARK   46  A    between atoms: _99  and  _100
REMARK   47  A    between atoms: _100  and  _101
REMARK   48  A    between atoms: _105  and  _107
REMARK   49  A    between atoms: _107  and  _108
REMARK   50  A    between atoms: _107  and  _110
REMARK   51  A    between atoms: _110  and  _111
REMARK   52  A    between atoms: _116  and  _118
REMARK   53  A    between atoms: _118  and  _119
REMARK   54  A    between atoms: _118  and  _121
REMARK   55  A    between atoms: _121  and  _122
REMARK   56  A    between atoms: _125  and  _127
REMARK   57  A    between atoms: _127  and  _128
REMARK   58  A    between atoms: _127  and  _130
REMARK   59  A    between atoms: _130  and  _131
REMARK   60  A    between atoms: _134  and  _136
REMARK   61  A    between atoms: _136  and  _137
REMARK   62  A    between atoms: _136  and  _139
REMARK   63  A    between atoms: _139  and  _140
REMARK   64  A    between atoms: _143  and  _145
REMARK   65  A    between atoms: _145  and  _146
REMARK   66  A    between atoms: _145  and  _148
REMARK   67  A    between atoms: _150  and  _152
REMARK   68  A    between atoms: _152  and  _153
REMARK   69  A    between atoms: _152  and  _155
REMARK   70  A    between atoms: _155  and  _156
REMARK   71  A    between atoms: _156  and  _157
REMARK   72  A    between atoms: _157  and  _158
REMARK   73  A    between atoms: _167  and  _169
REMARK   74  A    between atoms: _169  and  _170
REMARK   75  A    between atoms: _169  and  _172
REMARK   76  A    between atoms: _172  and  _173
REMARK   77  A    between atoms: _173  and  _174
REMARK   78  A    between atoms: _174  and  _175
REMARK   79  A    between atoms: _175  and  _176
REMARK   80  A    between atoms: _180  and  _182
REMARK   81  A    between atoms: _182  and  _183
REMARK   82  A    between atoms: _182  and  _185
REMARK   83  A    between atoms: _185  and  _186
REMARK   84  A    between atoms: _191  and  _193
REMARK   85  A    between atoms: _193  and  _194
REMARK   86  A    between atoms: _193  and  _196
REMARK   87  A    between atoms: _196  and  _197
REMARK   88  A    between atoms: _200  and  _202
REMARK   89  A    between atoms: _202  and  _203
REMARK   90  A    between atoms: _206  and  _208
REMARK   91  A    between atoms: _208  and  _209
REMARK   92  A    between atoms: _208  and  _211
REMARK   93  A    between atoms: _214  and  _216
REMARK   94  A    between atoms: _216  and  _217
REMARK   95  A    between atoms: _216  and  _219
REMARK   96  A    between atoms: _219  and  _220
REMARK   97  A    between atoms: _225  and  _227
REMARK   98  A    between atoms: _227  and  _228
REMARK   99  A    between atoms: _227  and  _230
REMARK  100  A    between atoms: _230  and  _231
REMARK  101  A    between atoms: _237  and  _239
REMARK  102  A    between atoms: _239  and  _240
REMARK  103  A    between atoms: _239  and  _242
REMARK  104  A    between atoms: _242  and  _243
REMARK  105  A    between atoms: _246  and  _248
REMARK  106  A    between atoms: _248  and  _249
REMARK  107  A    between atoms: _252  and  _254
REMARK  108  A    between atoms: _254  and  _255
REMARK  109  A    between atoms: _254  and  _257
REMARK  110  A    between atoms: _257  and  _258
REMARK  111  A    between atoms: _260  and  _262
REMARK  112  A    between atoms: _262  and  _263
REMARK  113  A    between atoms: _262  and  _265
REMARK  114  A    between atoms: _269  and  _271
REMARK  115  A    between atoms: _271  and  _272
REMARK  116  A    between atoms: _271  and  _274
REMARK  117  A    between atoms: _274  and  _275
REMARK  118  A    between atoms: _275  and  _276
REMARK  119  A    between atoms: _276  and  _277
REMARK  120  A    between atoms: _277  and  _278
REMARK  121  A    between atoms: _282  and  _284
REMARK  122  A    between atoms: _284  and  _285
REMARK  123  A    between atoms: _284  and  _287
REMARK  124  A    between atoms: _287  and  _288
REMARK  125  A    between atoms: _294  and  _296
REMARK  126  A    between atoms: _296  and  _297
REMARK  127  A    between atoms: _296  and  _299
REMARK  128  A    between atoms: _299  and  _300
REMARK  129  A    between atoms: _300  and  _301
REMARK  130  A    between atoms: _306  and  _308
REMARK  131  A    between atoms: _308  and  _309
REMARK  132  A    between atoms: _308  and  _311
REMARK  133  A    between atoms: _311  and  _312
REMARK                            x       y       z     vdW  Elec       q    Type
REMARK                         _______ _______ _______ _____ _____    ______ ____
ROOT
ATOM      1  CG  LYS A   1      23.306  38.847  17.965  0.00  0.00    -0.000 C 
ENDROOT
BRANCH   1   2
ATOM      2  CB  LYS A   1      21.998  38.613  18.729  0.00  0.00    +0.025 C 
BRANCH   2   3
ATOM      3  CA  LYS A   1      21.285  37.252  18.537  0.00  0.00    +0.133 C 
BRANCH   3   4
ATOM      4  N   LYS A   1      21.836  36.221  19.410  0.00  0.00    -0.239 NA
ATOM      5  H   LYS A   1      22.513  35.543  19.006  0.00  0.00    +0.142 HD
ENDBRANCH   3   4
BRANCH   3   6
ATOM      6  C   LYS A   1      21.379  36.740  17.099  0.00  0.00    +0.224 C 
ATOM      7  O   LYS A   1      22.076  35.760  16.822  0.00  0.00    -0.287 OA
ENDBRANCH   3   6
ENDBRANCH   2   3
ENDBRANCH   1   2
BRANCH   1   8
ATOM      8  CD  LYS A   1      24.469  37.974  18.447  0.00  0.00    -0.024 C 
BRANCH   8   9
ATOM      9  CE  LYS A   1      25.782  38.306  17.719  0.00  0.00    -0.086 C 
BRANCH   9  10
ATOM     10  NZ  LYS A   1      25.909  37.699  16.349  0.00  0.00    +0.380 N 
ATOM     11  HZ1 LYS A   1      25.859  36.663  16.424  0.00  0.00    -0.089 HD
ATOM     12  HZ2 LYS A   1      26.822  37.974  15.933  0.00  0.00    -0.089 HD
ATOM     13  HZ3 LYS A   1      25.134  38.042  15.746  0.00  0.00    -0.089 HD
ENDBRANCH   9  10
ENDBRANCH   8   9
ENDBRANCH   1   8
TORSDOF 7
REMARK  Name = ../refined-set-2016/3djx/3djx_pocket.pdb
REMARK  133 active torsions:
REMARK  status: ('A' for Active; 'I' for Inactive)
REMARK    1  A    between atoms: _1  and  _3
REMARK    2  A    between atoms: _3  and  _4
REMARK    3  A    between atoms: _3  and  _6
REMARK    4  A    between atoms: _6  and  _7
REMARK    5  A    between atoms: _7  and  _8
REMARK    6  A    between atoms: _10  and  _12
REMARK    7  A    between atoms: _12  and  _13
REMARK    8  A    between atoms: _12  and  _15
REMARK    9  A    between atoms: _15  and  _16
REMARK   10  A    between atoms: _16  and  _17
REMARK   11  A    between atoms: _19  and  _21
REMARK   12  A    between atoms: _21  and  _22
REMARK   13  A    between atoms: _21  and  _24
REMARK   14  A    between atoms: _24  and  _25
REMARK   15  A    between atoms: _25  and  _26
REMARK   16  A    between atoms: _26  and  _27
REMARK   17  A    between atoms: _27  and  _28
REMARK   18  A    between atoms: _32  and  _34
REMARK   19  A    between atoms: _34  and  _35
REMARK   20  A    between atoms: _34  and  _37
REMARK   21  A    between atoms: _37  and  _38
REMARK   22  A    between atoms: _38  and  _39
REMARK   23  A    between atoms: _39  and  _40
REMARK   24  A    between atoms: _40  and  _41
REMARK   25  A    between atoms: _46  and  _47
REMARK   26  A    between atoms: _52  and  _54
REMARK   27  A    between atoms: _54  and  _55
REMARK   28  A    between atoms: _54  and  _57
REMARK   29  A    between atoms: _60  and  _62
REMARK   30  A    between atoms: _62  and  _63
REMARK   31  A    between atoms: _62  and  _65
REMARK   32  A    between atoms: _65  and  _66
REMARK   33  A    between atoms: _71  and  _73
REMARK   34  A    between atoms: _73  and  _74
REMARK   35  A    between atoms: _73  and  _76
REMARK   36  A    between atoms: _76  and  _77
REMARK   37  A    between atoms: _80  and  _82
REMARK   38  A    between atoms: _82  and  _83
REMARK   39  A    between atoms: _82  and  _85
REMARK   40  A    between atoms: _85  and  _86
REMARK   41  A    between atoms: _92  and  _94
REMARK   42  A    between atoms: _94  and  _95
REMARK   43  A    between atoms: _94  and  _97
REMARK   44  A    between atoms: _97  and  _98
REMARK   45  A    between atoms: _98  and  _99
REMARK   46  A    between atoms: _99  and  _100
REMARK   47  A    between atoms: _100  and  _101
REMARK   48  A    between atoms: _105  and  _107
REMARK   49  A    between atoms: _107  and  _108
REMARK   50  A    between atoms: _107  and  _110
REMARK   51  A    between atoms: _110  and  _111
REMARK   52  A    between atoms: _116  and  _118
REMARK   53  A    between atoms: _118  and  _119
REMARK   54  A    between atoms: _118  and  _121
REMARK   55  A    between atoms: _121  and  _122
REMARK   56  A    between atoms: _125  and  _127
REMARK   57  A    between atoms: _127  and  _128
REMARK   58  A    between atoms: _127  and  _130
REMARK   59  A    between atoms: _130  and  _131
REMARK   60  A    between atoms: _134  and  _136
REMARK   61  A    between atoms: _136  and  _137
REMARK   62  A    between atoms: _136  and  _139
REMARK   63  A    between atoms: _139  and  _140
REMARK   64  A    between atoms: _143  and  _145
REMARK   65  A    between atoms: _145  and  _146
REMARK   66  A    between atoms: _145  and  _148
REMARK   67  A    between atoms: _150  and  _152
REMARK   68  A    between atoms: _152  and  _153
REMARK   69  A    between atoms: _152  and  _155
REMARK   70  A    between atoms: _155  and  _156
REMARK   71  A    between atoms: _156  and  _157
REMARK   72  A    between atoms: _157  and  _158
REMARK   73  A    between atoms: _167  and  _169
REMARK   74  A    between atoms: _169  and  _170
REMARK   75  A    between atoms: _169  and  _172
REMARK   76  A    between atoms: _172  and  _173
REMARK   77  A    between atoms: _173  and  _174
REMARK   78  A    between atoms: _174  and  _175
REMARK   79  A    between atoms: _175  and  _176
REMARK   80  A    between atoms: _180  and  _182
REMARK   81  A    between atoms: _182  and  _183
REMARK   82  A    between atoms: _182  and  _185
REMARK   83  A    between atoms: _185  and  _186
REMARK   84  A    between atoms: _191  and  _193
REMARK   85  A    between atoms: _193  and  _194
REMARK   86  A    between atoms: _193  and  _196
REMARK   87  A    between atoms: _196  and  _197
REMARK   88  A    between atoms: _200  and  _202
REMARK   89  A    between atoms: _202  and  _203
REMARK   90  A    between atoms: _206  and  _208
REMARK   91  A    between atoms: _208  and  _209
REMARK   92  A    between atoms: _208  and  _211
REMARK   93  A    between atoms: _214  and  _216
REMARK   94  A    between atoms: _216  and  _217
REMARK   95  A    between atoms: _216  and  _219
REMARK   96  A    between atoms: _219  and  _220
REMARK   97  A    between atoms: _225  and  _227
REMARK   98  A    between atoms: _227  and  _228
REMARK   99  A    between atoms: _227  and  _230
REMARK  100  A    between atoms: _230  and  _231
REMARK  101  A    between atoms: _237  and  _239
REMARK  102  A    between atoms: _239  and  _240
REMARK  103  A    between atoms: _239  and  _242
REMARK  104  A    between atoms: _242  and  _243
REMARK  105  A    between atoms: _246  and  _248
REMARK  106  A    between atoms: _248  and  _249
REMARK  107  A    between atoms: _252  and  _254
REMARK  108  A    between atoms: _254  and  _255
REMARK  109  A    between atoms: _254  and  _257
REMARK  110  A    between atoms: _257  and  _258
REMARK  111  A    between atoms: _260  and  _262
REMARK  112  A    between atoms: _262  and  _263
REMARK  113  A    between atoms: _262  and  _265
REMARK  114  A    between atoms: _269  and  _271
REMARK  115  A    between atoms: _271  and  _272
REMARK  116  A    between atoms: _271  and  _274
REMARK  117  A    between atoms: _274  and  _275
REMARK  118  A    between atoms: _275  and  _276
REMARK  119  A    between atoms: _276  and  _277
REMARK  120  A    between atoms: _277  and  _278
REMARK  121  A    between atoms: _282  and  _284
REMARK  122  A    between atoms: _284  and  _285
REMARK  123  A    between atoms: _284  and  _287
REMARK  124  A    between atoms: _287  and  _288
REMARK  125  A    between atoms: _294  and  _296
REMARK  126  A    between atoms: _296  and  _297
REMARK  127  A    between atoms: _296  and  _299
REMARK  128  A    between atoms: _299  and  _300
REMARK  129  A    between atoms: _300  and  _301
REMARK  130  A    between atoms: _306  and  _308
REMARK  131  A    between atoms: _308  and  _309
REMARK  132  A    between atoms: _308  and  _311
REMARK  133  A    between atoms: _311  and  _312
REMARK                            x       y       z     vdW  Elec       q    Type
REMARK                         _______ _______ _______ _____ _____    ______ ____
ROOT
ATOM      1  C   VAL A   3      25.921  38.252   7.425  0.00  0.00    +0.241 C 
ATOM      2  O   VAL A   3      26.849  38.306   8.216  0.00  0.00    -0.273 OA
ATOM      3  N   ASN A   4      25.742  37.249   6.576  0.00  0.00    -0.297 N 
ATOM      4  H   ASN A   4      24.890  37.229   5.979  0.00  0.00    +0.150 HD
ENDROOT
BRANCH   3   5
ATOM      5  CA  ASN A   4      26.716  36.179   6.467  0.00  0.00    +0.158 C 
BRANCH   5   6
ATOM      6  C   ASN A   4      26.750  35.573   5.092  0.00  0.00    +0.241 C 
ATOM      7  N   THR A   5      27.967  35.324   4.605  0.00  0.00    -0.295 N 
ATOM      8  H   THR A   5      28.797  35.586   5.174  0.00  0.00    +0.150 HD
ATOM      9  O   ASN A   4      25.708  35.342   4.494  0.00  0.00    -0.273 OA
BRANCH   7  10
ATOM     10  CA  THR A   5      28.177  34.697   3.302  0.00  0.00    +0.176 C 
BRANCH  10  11
ATOM     11  C   THR A   5      28.644  33.249   3.436  0.00  0.00    +0.243 C 
ATOM     12  O   THR A   5      29.539  32.944   4.230  0.00  0.00    -0.273 OA
ATOM     13  N   PHE A   6      28.030  32.372   2.645  0.00  0.00    -0.298 N 
ATOM     14  H   PHE A   6      27.168  32.669   2.144  0.00  0.00    +0.150 HD
BRANCH  13  15
ATOM     15  CA  PHE A   6      28.520  31.005   2.452  0.00  0.00    +0.141 C 
BRANCH  15  16
ATOM     16  C   PHE A   6      29.096  30.859   1.057  0.00  0.00    +0.227 C 
ATOM     17  O   PHE A   6      28.503  31.331   0.073  0.00  0.00    -0.286 OA
ENDBRANCH  15  16
BRANCH  15  18
ATOM     18  CB  PHE A   6      27.386  29.986   2.649  0.00  0.00    +0.054 C 
BRANCH  18  19
ATOM     19  CG  PHE A   6      26.874  29.942   4.062  0.00  0.00    -0.020 A 
ATOM     20  CD2 PHE A   6      27.587  29.268   5.049  0.00  0.00    -0.004 A 
ATOM     21  CE2 PHE A   6      27.115  29.242   6.359  0.00  0.00    -0.000 A 
ATOM     22  CZ  PHE A   6      25.889  29.905   6.698  0.00  0.00    -0.000 A 
ATOM     23  CE1 PHE A   6      25.187  30.588   5.709  0.00  0.00    -0.000 A 
ATOM     24  CD1 PHE A   6      25.677  30.600   4.404  0.00  0.00    -0.004 A 
ENDBRANCH  18  19
ENDBRANCH  15  18
ENDBRANCH  13  15
ENDBRANCH  10  11
BRANCH  10  25
ATOM     25  CB  THR A   5      29.238  35.474   2.491  0.00  0.00    +0.137 C 
ATOM     26  CG2 THR A   5      29.486  34.830   1.110  0.00  0.00    +0.034 C 
BRANCH  25  27
ATOM     27  OG1 THR A   5      28.804  36.831   2.335  0.00  0.00    -0.382 OA
ATOM     28  HG1 THR A   5      27.938  36.846   1.855  0.00  0.00    +0.210 HD
ENDBRANCH  25  27
ENDBRANCH  10  25
ENDBRANCH   7  10
ENDBRANCH   5   6
BRANCH   5  29
ATOM     29  CB  ASN A   4      26.442  35.082   7.495  0.00  0.00    +0.114 C 
BRANCH  29  30
ATOM     30  CG  ASN A   4      27.581  34.097   7.596  0.00  0.00    +0.222 C 
ATOM     31  OD1 ASN A   4      28.604  34.403   8.187  0.00  0.00    -0.275 OA
ATOM     32  ND2 ASN A   4      27.407  32.909   7.020  0.00  0.00    -0.329 N 
ATOM     33 HD21 ASN A   4      28.162  32.195   7.063  0.00  0.00    +0.145 HD
ATOM     34 HD22 ASN A   4      26.516  32.695   6.528  0.00  0.00    +0.145 HD
ENDBRANCH  29  30
ENDBRANCH   5  29
ENDBRANCH   3   5
BRANCH   1  35
ATOM     35  CA  VAL A   3      24.903  39.377   7.376  0.00  0.00    +0.149 C 
BRANCH  35  37
ATOM     36  C   PRO A   2      23.175  39.920   9.030  0.00  0.00    +0.241 C 
ATOM     37  N   VAL A   3      24.449  39.645   8.744  0.00  0.00    -0.297 N 
ATOM     38  H   VAL A   3      25.143  39.620   9.518  0.00  0.00    +0.150 HD
ATOM     39  O   PRO A   2      22.281  39.905   8.193  0.00  0.00    -0.273 OA
BRANCH  36  45
ATOM     40  C   LYS A   1      23.338  38.247  11.666  0.00  0.00    +0.241 C 
ATOM     41  N   PRO A   2      23.559  39.571  11.507  0.00  0.00    -0.272 N 
ATOM     42  CD  PRO A   2      24.472  40.442  12.271  0.00  0.00    +0.094 C 
ATOM     43  CG  PRO A   2      23.906  41.798  12.048  0.00  0.00    +0.024 C 
ATOM     44  CB  PRO A   2      23.223  41.777  10.718  0.00  0.00    +0.031 C 
ATOM     45  CA  PRO A   2      22.835  40.309  10.467  0.00  0.00    +0.152 C 
ATOM     46  O   LYS A   1      22.644  37.591  10.888  0.00  0.00    -0.273 OA
BRANCH  40  47
ATOM     47  CA  LYS A   1      23.966  37.565  12.890  0.00  0.00    +0.145 C 
BRANCH  47  48
ATOM     48  N   LYS A   1      22.894  36.933  13.652  0.00  0.00    -0.238 NA
ATOM     49  H   LYS A   1      22.870  35.901  13.778  0.00  0.00    +0.142 HD
ENDBRANCH  47  48
BRANCH  47  50
ATOM     50  CB  LYS A   1      25.026  36.556  12.462  0.00  0.00    +0.026 C 
BRANCH  50  51
ATOM     51  CG  LYS A   1      26.217  37.216  11.770  0.00  0.00    -0.000 C 
BRANCH  51  52
ATOM     52  CD  LYS A   1      27.294  36.190  11.506  0.00  0.00    -0.024 C 
BRANCH  52  53
ATOM     53  CE  LYS A   1      28.479  36.808  10.794  0.00  0.00    -0.086 C 
BRANCH  53  54
ATOM     54  NZ  LYS A   1      29.534  35.784  10.531  0.00  0.00    +0.380 N 
ATOM     55  HZ1 LYS A   1      29.858  35.382  11.434  0.00  0.00    -0.089 HD
ATOM     56  HZ2 LYS A   1      30.336  36.232  10.042  0.00  0.00    -0.089 HD
ATOM     57  HZ3 LYS A   1      29.141  35.028   9.934  0.00  0.00    -0.089 HD
ENDBRANCH  53  54
ENDBRANCH  52  53
ENDBRANCH  51  52
ENDBRANCH  50  51
ENDBRANCH  47  50
ENDBRANCH  40  47
ENDBRANCH  36  45
ENDBRANCH  35  37
BRANCH  35  58
ATOM     58  CB  VAL A   3      25.605  40.615   6.728  0.00  0.00    +0.027 C 
ATOM     59  CG2 VAL A   3      24.694  41.831   6.739  0.00  0.00    +0.002 C 
ATOM     60  CG1 VAL A   3      26.042  40.318   5.303  0.00  0.00    +0.002 C 
ENDBRANCH  35  58
ENDBRANCH   1  35
TORSDOF 23
REMARK  Name = ../refined-set-2016/3djx/3djx_pocket.pdb
REMARK  133 active torsions:
REMARK  status: ('A' for Active; 'I' for Inactive)
REMARK    1  A    between atoms: _1  and  _3
REMARK    2  A    between atoms: _3  and  _4
REMARK    3  A    between atoms: _3  and  _6
REMARK    4  A    between atoms: _6  and  _7
REMARK    5  A    between atoms: _7  and  _8
REMARK    6  A    between atoms: _10  and  _12
REMARK    7  A    between atoms: _12  and  _13
REMARK    8  A    between atoms: _12  and  _15
REMARK    9  A    between atoms: _15  and  _16
REMARK   10  A    between atoms: _16  and  _17
REMARK   11  A    between atoms: _19  and  _21
REMARK   12  A    between atoms: _21  and  _22
REMARK   13  A    between atoms: _21  and  _24
REMARK   14  A    between atoms: _24  and  _25
REMARK   15  A    between atoms: _25  and  _26
REMARK   16  A    between atoms: _26  and  _27
REMARK   17  A    between atoms: _27  and  _28
REMARK   18  A    between atoms: _32  and  _34
REMARK   19  A    between atoms: _34  and  _35
REMARK   20  A    between atoms: _34  and  _37
REMARK   21  A    between atoms: _37  and  _38
REMARK   22  A    between atoms: _38  and  _39
REMARK   23  A    between atoms: _39  and  _40
REMARK   24  A    between atoms: _40  and  _41
REMARK   25  A    between atoms: _46  and  _47
REMARK   26  A    between atoms: _52  and  _54
REMARK   27  A    between atoms: _54  and  _55
REMARK   28  A    between atoms: _54  and  _57
REMARK   29  A    between atoms: _60  and  _62
REMARK   30  A    between atoms: _62  and  _63
REMARK   31  A    between atoms: _62  and  _65
REMARK   32  A    between atoms: _65  and  _66
REMARK   33  A    between atoms: _71  and  _73
REMARK   34  A    between atoms: _73  and  _74
REMARK   35  A    between atoms: _73  and  _76
REMARK   36  A    between atoms: _76  and  _77
REMARK   37  A    between atoms: _80  and  _82
REMARK   38  A    between atoms: _82  and  _83
REMARK   39  A    between atoms: _82  and  _85
REMARK   40  A    between atoms: _85  and  _86
REMARK   41  A    between atoms: _92  and  _94
REMARK   42  A    between atoms: _94  and  _95
REMARK   43  A    between atoms: _94  and  _97
REMARK   44  A    between atoms: _97  and  _98
REMARK   45  A    between atoms: _98  and  _99
REMARK   46  A    between atoms: _99  and  _100
REMARK   47  A    between atoms: _100  and  _101
REMARK   48  A    between atoms: _105  and  _107
REMARK   49  A    between atoms: _107  and  _108
REMARK   50  A    between atoms: _107  and  _110
REMARK   51  A    between atoms: _110  and  _111
REMARK   52  A    between atoms: _116  and  _118
REMARK   53  A    between atoms: _118  and  _119
REMARK   54  A    between atoms: _118  and  _121
REMARK   55  A    between atoms: _121  and  _122
REMARK   56  A    between atoms: _125  and  _127
REMARK   57  A    between atoms: _127  and  _128
REMARK   58  A    between atoms: _127  and  _130
REMARK   59  A    between atoms: _130  and  _131
REMARK   60  A    between atoms: _134  and  _136
REMARK   61  A    between atoms: _136  and  _137
REMARK   62  A    between atoms: _136  and  _139
REMARK   63  A    between atoms: _139  and  _140
REMARK   64  A    between atoms: _143  and  _145
REMARK   65  A    between atoms: _145  and  _146
REMARK   66  A    between atoms: _145  and  _148
REMARK   67  A    between atoms: _150  and  _152
REMARK   68  A    between atoms: _152  and  _153
REMARK   69  A    between atoms: _152  and  _155
REMARK   70  A    between atoms: _155  and  _156
REMARK   71  A    between atoms: _156  and  _157
REMARK   72  A    between atoms: _157  and  _158
REMARK   73  A    between atoms: _167  and  _169
REMARK   74  A    between atoms: _169  and  _170
REMARK   75  A    between atoms: _169  and  _172
REMARK   76  A    between atoms: _172  and  _173
REMARK   77  A    between atoms: _173  and  _174
REMARK   78  A    between atoms: _174  and  _175
REMARK   79  A    between atoms: _175  and  _176
REMARK   80  A    between atoms: _180  and  _182
REMARK   81  A    between atoms: _182  and  _183
REMARK   82  A    between atoms: _182  and  _185
REMARK   83  A    between atoms: _185  and  _186
REMARK   84  A    between atoms: _191  and  _193
REMARK   85  A    between atoms: _193  and  _194
REMARK   86  A    between atoms: _193  and  _196
REMARK   87  A    between atoms: _196  and  _197
REMARK   88  A    between atoms: _200  and  _202
REMARK   89  A    between atoms: _202  and  _203
REMARK   90  A    between atoms: _206  and  _208
REMARK   91  A    between atoms: _208  and  _209
REMARK   92  A    between atoms: _208  and  _211
REMARK   93  A    between atoms: _214  and  _216
REMARK   94  A    between atoms: _216  and  _217
REMARK   95  A    between atoms: _216  and  _219
REMARK   96  A    between atoms: _219  and  _220
REMARK   97  A    between atoms: _225  and  _227
REMARK   98  A    between atoms: _227  and  _228
REMARK   99  A    between atoms: _227  and  _230
REMARK  100  A    between atoms: _230  and  _231
REMARK  101  A    between atoms: _237  and  _239
REMARK  102  A    between atoms: _239  and  _240
REMARK  103  A    between atoms: _239  and  _242
REMARK  104  A    between atoms: _242  and  _243
REMARK  105  A    between atoms: _246  and  _248
REMARK  106  A    between atoms: _248  and  _249
REMARK  107  A    between atoms: _252  and  _254
REMARK  108  A    between atoms: _254  and  _255
REMARK  109  A    between atoms: _254  and  _257
REMARK  110  A    between atoms: _257  and  _258
REMARK  111  A    between atoms: _260  and  _262
REMARK  112  A    between atoms: _262  and  _263
REMARK  113  A    between atoms: _262  and  _265
REMARK  114  A    between atoms: _269  and  _271
REMARK  115  A    between atoms: _271  and  _272
REMARK  116  A    between atoms: _271  and  _274
REMARK  117  A    between atoms: _274  and  _275
REMARK  118  A    between atoms: _275  and  _276
REMARK  119  A    between atoms: _276  and  _277
REMARK  120  A    between atoms: _277  and  _278
REMARK  121  A    between atoms: _282  and  _284
REMARK  122  A    between atoms: _284  and  _285
REMARK  123  A    between atoms: _284  and  _287
REMARK  124  A    between atoms: _287  and  _288
REMARK  125  A    between atoms: _294  and  _296
REMARK  126  A    between atoms: _296  and  _297
REMARK  127  A    between atoms: _296  and  _299
REMARK  128  A    between atoms: _299  and  _300
REMARK  129  A    between atoms: _300  and  _301
REMARK  130  A    between atoms: _306  and  _308
REMARK  131  A    between atoms: _308  and  _309
REMARK  132  A    between atoms: _308  and  _311
REMARK  133  A    between atoms: _311  and  _312
REMARK                            x       y       z     vdW  Elec       q    Type
REMARK                         _______ _______ _______ _____ _____    ______ ____
ROOT
ATOM      1  C   LYS A   1      37.599  47.657   7.027  0.00  0.00    +0.238 C 
ATOM      2  N   ASN A   2      38.147  46.906   7.990  0.00  0.00    -0.298 N 
ATOM      3  H   ASN A   2      38.351  45.905   7.794  0.00  0.00    +0.150 HD
ATOM      4  O   LYS A   1      37.374  48.870   7.155  0.00  0.00    -0.274 OA
ENDROOT
BRANCH   1   5
ATOM      5  CA  LYS A   1      37.291  46.956   5.699  0.00  0.00    +0.145 C 
BRANCH   5   6
ATOM      6  N   LYS A   1      38.225  45.865   5.431  0.00  0.00    -0.238 NA
ATOM      7  H   LYS A   1      37.861  44.899   5.308  0.00  0.00    +0.142 HD
ENDBRANCH   5   6
BRANCH   5   8
ATOM      8  CB  LYS A   1      35.847  46.455   5.673  0.00  0.00    +0.026 C 
BRANCH   8   9
ATOM      9  CG  LYS A   1      35.308  46.236   4.252  0.00  0.00    -0.000 C 
BRANCH   9  10
ATOM     10  CD  LYS A   1      33.777  46.256   4.217  0.00  0.00    -0.024 C 
BRANCH  10  11
ATOM     11  CE  LYS A   1      33.248  46.332   2.776  0.00  0.00    -0.086 C 
BRANCH  11  12
ATOM     12  NZ  LYS A   1      31.835  45.860   2.600  0.00  0.00    +0.380 N 
ATOM     13  HZ1 LYS A   1      31.201  46.442   3.184  0.00  0.00    -0.089 HD
ATOM     14  HZ2 LYS A   1      31.764  44.865   2.894  0.00  0.00    -0.089 HD
ATOM     15  HZ3 LYS A   1      31.564  45.947   1.600  0.00  0.00    -0.089 HD
ENDBRANCH  11  12
ENDBRANCH  10  11
ENDBRANCH   9  10
ENDBRANCH   8   9
ENDBRANCH   5   8
ENDBRANCH   1   5
BRANCH   2  16
ATOM     16  CA  ASN A   2      38.467  47.450   9.309  0.00  0.00    +0.146 C 
BRANCH  16  17
ATOM     17  C   ASN A   2      39.887  48.000   9.450  0.00  0.00    +0.227 C 
ATOM     18  O   ASN A   2      40.338  48.282  10.557  0.00  0.00    -0.286 OA
ENDBRANCH  16  17
BRANCH  16  19
ATOM     19  CB  ASN A   2      38.199  46.394  10.388  0.00  0.00    +0.112 C 
BRANCH  19  20
ATOM     20  CG  ASN A   2      39.177  45.237  10.336  0.00  0.00    +0.222 C 
ATOM     21  ND2 ASN A   2      38.974  44.251  11.214  0.00  0.00    -0.329 N 
ATOM     22 HD21 ASN A   2      38.183  44.309  11.887  0.00  0.00    +0.145 HD
ATOM     23 HD22 ASN A   2      39.607  43.426  11.224  0.00  0.00    +0.145 HD
ATOM     24  OD1 ASN A   2      40.097  45.219   9.518  0.00  0.00    -0.275 OA
ENDBRANCH  19  20
ENDBRANCH  16  19
ENDBRANCH   2  16
TORSDOF 11
REMARK  Name = ../refined-set-2016/3djx/3djx_pocket.pdb
REMARK  133 active torsions:
REMARK  status: ('A' for Active; 'I' for Inactive)
REMARK    1  A    between atoms: _1  and  _3
REMARK    2  A    between atoms: _3  and  _4
REMARK    3  A    between atoms: _3  and  _6
REMARK    4  A    between atoms: _6  and  _7
REMARK    5  A    between atoms: _7  and  _8
REMARK    6  A    between atoms: _10  and  _12
REMARK    7  A    between atoms: _12  and  _13
REMARK    8  A    between atoms: _12  and  _15
REMARK    9  A    between atoms: _15  and  _16
REMARK   10  A    between atoms: _16  and  _17
REMARK   11  A    between atoms: _19  and  _21
REMARK   12  A    between atoms: _21  and  _22
REMARK   13  A    between atoms: _21  and  _24
REMARK   14  A    between atoms: _24  and  _25
REMARK   15  A    between atoms: _25  and  _26
REMARK   16  A    between atoms: _26  and  _27
REMARK   17  A    between atoms: _27  and  _28
REMARK   18  A    between atoms: _32  and  _34
REMARK   19  A    between atoms: _34  and  _35
REMARK   20  A    between atoms: _34  and  _37
REMARK   21  A    between atoms: _37  and  _38
REMARK   22  A    between atoms: _38  and  _39
REMARK   23  A    between atoms: _39  and  _40
REMARK   24  A    between atoms: _40  and  _41
REMARK   25  A    between atoms: _46  and  _47
REMARK   26  A    between atoms: _52  and  _54
REMARK   27  A    between atoms: _54  and  _55
REMARK   28  A    between atoms: _54  and  _57
REMARK   29  A    between atoms: _60  and  _62
REMARK   30  A    between atoms: _62  and  _63
REMARK   31  A    between atoms: _62  and  _65
REMARK   32  A    between atoms: _65  and  _66
REMARK   33  A    between atoms: _71  and  _73
REMARK   34  A    between atoms: _73  and  _74
REMARK   35  A    between atoms: _73  and  _76
REMARK   36  A    between atoms: _76  and  _77
REMARK   37  A    between atoms: _80  and  _82
REMARK   38  A    between atoms: _82  and  _83
REMARK   39  A    between atoms: _82  and  _85
REMARK   40  A    between atoms: _85  and  _86
REMARK   41  A    between atoms: _92  and  _94
REMARK   42  A    between atoms: _94  and  _95
REMARK   43  A    between atoms: _94  and  _97
REMARK   44  A    between atoms: _97  and  _98
REMARK   45  A    between atoms: _98  and  _99
REMARK   46  A    between atoms: _99  and  _100
REMARK   47  A    between atoms: _100  and  _101
REMARK   48  A    between atoms: _105  and  _107
REMARK   49  A    between atoms: _107  and  _108
REMARK   50  A    between atoms: _107  and  _110
REMARK   51  A    between atoms: _110  and  _111
REMARK   52  A    between atoms: _116  and  _118
REMARK   53  A    between atoms: _118  and  _119
REMARK   54  A    between atoms: _118  and  _121
REMARK   55  A    between atoms: _121  and  _122
REMARK   56  A    between atoms: _125  and  _127
REMARK   57  A    between atoms: _127  and  _128
REMARK   58  A    between atoms: _127  and  _130
REMARK   59  A    between atoms: _130  and  _131
REMARK   60  A    between atoms: _134  and  _136
REMARK   61  A    between atoms: _136  and  _137
REMARK   62  A    between atoms: _136  and  _139
REMARK   63  A    between atoms: _139  and  _140
REMARK   64  A    between atoms: _143  and  _145
REMARK   65  A    between atoms: _145  and  _146
REMARK   66  A    between atoms: _145  and  _148
REMARK   67  A    between atoms: _150  and  _152
REMARK   68  A    between atoms: _152  and  _153
REMARK   69  A    between atoms: _152  and  _155
REMARK   70  A    between atoms: _155  and  _156
REMARK   71  A    between atoms: _156  and  _157
REMARK   72  A    between atoms: _157  and  _158
REMARK   73  A    between atoms: _167  and  _169
REMARK   74  A    between atoms: _169  and  _170
REMARK   75  A    between atoms: _169  and  _172
REMARK   76  A    between atoms: _172  and  _173
REMARK   77  A    between atoms: _173  and  _174
REMARK   78  A    between atoms: _174  and  _175
REMARK   79  A    between atoms: _175  and  _176
REMARK   80  A    between atoms: _180  and  _182
REMARK   81  A    between atoms: _182  and  _183
REMARK   82  A    between atoms: _182  and  _185
REMARK   83  A    between atoms: _185  and  _186
REMARK   84  A    between atoms: _191  and  _193
REMARK   85  A    between atoms: _193  and  _194
REMARK   86  A    between atoms: _193  and  _196
REMARK   87  A    between atoms: _196  and  _197
REMARK   88  A    between atoms: _200  and  _202
REMARK   89  A    between atoms: _202  and  _203
REMARK   90  A    between atoms: _206  and  _208
REMARK   91  A    between atoms: _208  and  _209
REMARK   92  A    between atoms: _208  and  _211
REMARK   93  A    between atoms: _214  and  _216
REMARK   94  A    between atoms: _216  and  _217
REMARK   95  A    between atoms: _216  and  _219
REMARK   96  A    between atoms: _219  and  _220
REMARK   97  A    between atoms: _225  and  _227
REMARK   98  A    between atoms: _227  and  _228
REMARK   99  A    between atoms: _227  and  _230
REMARK  100  A    between atoms: _230  and  _231
REMARK  101  A    between atoms: _237  and  _239
REMARK  102  A    between atoms: _239  and  _240
REMARK  103  A    between atoms: _239  and  _242
REMARK  104  A    between atoms: _242  and  _243
REMARK  105  A    between atoms: _246  and  _248
REMARK  106  A    between atoms: _248  and  _249
REMARK  107  A    between atoms: _252  and  _254
REMARK  108  A    between atoms: _254  and  _255
REMARK  109  A    between atoms: _254  and  _257
REMARK  110  A    between atoms: _257  and  _258
REMARK  111  A    between atoms: _260  and  _262
REMARK  112  A    between atoms: _262  and  _263
REMARK  113  A    between atoms: _262  and  _265
REMARK  114  A    between atoms: _269  and  _271
REMARK  115  A    between atoms: _271  and  _272
REMARK  116  A    between atoms: _271  and  _274
REMARK  117  A    between atoms: _274  and  _275
REMARK  118  A    between atoms: _275  and  _276
REMARK  119  A    between atoms: _276  and  _277
REMARK  120  A    between atoms: _277  and  _278
REMARK  121  A    between atoms: _282  and  _284
REMARK  122  A    between atoms: _284  and  _285
REMARK  123  A    between atoms: _284  and  _287
REMARK  124  A    between atoms: _287  and  _288
REMARK  125  A    between atoms: _294  and  _296
REMARK  126  A    between atoms: _296  and  _297
REMARK  127  A    between atoms: _296  and  _299
REMARK  128  A    between atoms: _299  and  _300
REMARK  129  A    between atoms: _300  and  _301
REMARK  130  A    between atoms: _306  and  _308
REMARK  131  A    between atoms: _308  and  _309
REMARK  132  A    between atoms: _308  and  _311
REMARK  133  A    between atoms: _311  and  _312
REMARK                            x       y       z     vdW  Elec       q    Type
REMARK                         _______ _______ _______ _____ _____    ______ ____
ROOT
ATOM      1  C   ASP A   3      23.212  35.803   1.573  0.00  0.00    +0.241 C 
ATOM      2  N   CYS A   4      23.436  35.807   2.886  0.00  0.00    -0.296 N 
ATOM      3  H   CYS A   4      24.420  35.855   3.220  0.00  0.00    +0.150 HD
ATOM      4  O   ASP A   3      22.083  35.676   1.064  0.00  0.00    -0.273 OA
ENDROOT
BRANCH   2   5
ATOM      5  CA  CYS A   4      22.366  35.747   3.881  0.00  0.00    +0.160 C 
BRANCH   5   6
ATOM      6  C   CYS A   4      22.253  37.077   4.623  0.00  0.00    +0.242 C 
ATOM      7  O   CYS A   4      23.197  37.517   5.266  0.00  0.00    -0.273 OA
ATOM      8  N   ARG A   5      21.075  37.700   4.546  0.00  0.00    -0.298 N 
ATOM      9  H   ARG A   5      20.313  37.259   3.993  0.00  0.00    +0.150 HD
BRANCH   8  10
ATOM     10  CA  ARG A   5      20.814  38.976   5.208  0.00  0.00    +0.137 C 
BRANCH  10  11
ATOM     11  C   ARG A   5      19.471  38.915   5.893  0.00  0.00    +0.227 C 
ATOM     12  O   ARG A   5      18.493  38.453   5.304  0.00  0.00    -0.286 OA
ENDBRANCH  10  11
BRANCH  10  13
ATOM     13  CB  ARG A   5      20.846  40.147   4.207  0.00  0.00    +0.031 C 
BRANCH  13  14
ATOM     14  CG  ARG A   5      22.214  40.293   3.579  0.00  0.00    +0.045 C 
BRANCH  14  15
ATOM     15  CD  ARG A   5      22.359  41.455   2.628  0.00  0.00    +0.174 C 
BRANCH  15  16
ATOM     16  NE  ARG A   5      23.687  41.355   2.051  0.00  0.00    -0.265 N 
ATOM     17  CZ  ARG A   5      24.722  42.109   2.396  0.00  0.00    +0.342 C 
ATOM     18  NH2 ARG A   5      24.578  43.105   3.266  0.00  0.00    -0.292 N 
ATOM     19 HH21 ARG A   5      23.646  43.300   3.684  0.00  0.00    +0.255 HD
ATOM     20 HH22 ARG A   5      25.398  43.689   3.528  0.00  0.00    +0.255 HD
ATOM     21  NH1 ARG A   5      25.890  41.902   1.809  0.00  0.00    -0.292 N 
ATOM     22 HH11 ARG A   5      26.712  42.484   2.067  0.00  0.00    +0.255 HD
ATOM     23 HH12 ARG A   5      25.986  41.157   1.089  0.00  0.00    +0.255 HD
ATOM     24  HE  ARG A   5      23.838  40.639   1.312  0.00  0.00    +0.259 HD
ENDBRANCH  15  16
ENDBRANCH  14  15
ENDBRANCH  13  14
ENDBRANCH  10  13
ENDBRANCH   8  10
ENDBRANCH   5   6
BRANCH   5  25
ATOM     25  CB  CYS A   4      22.630  34.626   4.893  0.00  0.00    +0.098 C 
ATOM     26  SG  CYS A   4      22.764  32.978   4.159  0.00  0.00    -0.080 S 
ENDBRANCH   5  25
ENDBRANCH   2   5
BRANCH   1  27
ATOM     27  CA  ASP A   3      24.459  35.948   0.692  0.00  0.00    +0.160 C 
BRANCH  27  30
ATOM     28  C   THR A   2      25.215  33.716   0.041  0.00  0.00    +0.243 C 
ATOM     29  O   THR A   2      25.968  33.565   1.008  0.00  0.00    -0.273 OA
ATOM     30  N   ASP A   3      24.489  34.800  -0.184  0.00  0.00    -0.296 N 
ATOM     31  H   ASP A   3      23.905  34.827  -1.044  0.00  0.00    +0.150 HD
BRANCH  28  32
ATOM     32  CA  THR A   2      25.090  32.655  -1.023  0.00  0.00    +0.176 C 
BRANCH  32  34
ATOM     33  C   ILE A   1      26.801  32.485  -2.708  0.00  0.00    +0.238 C 
ATOM     34  N   THR A   2      26.431  32.335  -1.449  0.00  0.00    -0.295 N 
ATOM     35  H   THR A   2      27.118  31.980  -0.753  0.00  0.00    +0.150 HD
ATOM     36  O   ILE A   1      26.009  32.753  -3.615  0.00  0.00    -0.274 OA
BRANCH  33  37
ATOM     37  CA  ILE A   1      28.280  32.297  -2.983  0.00  0.00    +0.145 C 
BRANCH  37  38
ATOM     38  N   ILE A   1      28.512  32.082  -4.412  0.00  0.00    -0.238 NA
ATOM     39  H   ILE A   1      28.044  32.709  -5.097  0.00  0.00    +0.142 HD
ENDBRANCH  37  38
BRANCH  37  40
ATOM     40  CB  ILE A   1      29.067  33.522  -2.429  0.00  0.00    +0.025 C 
ATOM     41  CG2 ILE A   1      30.586  33.360  -2.705  0.00  0.00    +0.002 C 
BRANCH  40  42
ATOM     42  CG1 ILE A   1      28.485  34.843  -2.973  0.00  0.00    +0.002 C 
ATOM     43  CD1 ILE A   1      29.234  36.090  -2.457  0.00  0.00    +0.000 C 
ENDBRANCH  40  42
ENDBRANCH  37  40
ENDBRANCH  33  37
ENDBRANCH  32  34
BRANCH  32  44
ATOM     44  CB  THR A   2      24.357  31.422  -0.455  0.00  0.00    +0.137 C 
ATOM     45  CG2 THR A   2      23.005  31.819   0.163  0.00  0.00    +0.034 C 
BRANCH  44  46
ATOM     46  OG1 THR A   2      24.146  30.493  -1.516  0.00  0.00    -0.382 OA
ATOM     47  HG1 THR A   2      25.020  30.223  -1.895  0.00  0.00    +0.210 HD
ENDBRANCH  44  46
ENDBRANCH  32  44
ENDBRANCH  28  32
ENDBRANCH  27  30
BRANCH  27  48
ATOM     48  CB  ASP A   3      24.407  37.197  -0.205  0.00  0.00    +0.143 C 
BRANCH  48  49
ATOM     49  CG  ASP A   3      24.278  38.502   0.565  0.00  0.00    +0.367 C 
ATOM     50  OD2 ASP A   3      23.133  38.921   0.836  0.00  0.00    -0.246 OA
ATOM     51  OD1 ASP A   3      25.327  39.134   0.823  0.00  0.00    -0.246 OA
ENDBRANCH  48  49
ENDBRANCH  27  48
ENDBRANCH   1  27
TORSDOF 21
REMARK  Name = ../refined-set-2016/3djx/3djx_pocket.pdb
REMARK  133 active torsions:
REMARK  status: ('A' for Active; 'I' for Inactive)
REMARK    1  A    between atoms: _1  and  _3
REMARK    2  A    between atoms: _3  and  _4
REMARK    3  A    between atoms: _3  and  _6
REMARK    4  A    between atoms: _6  and  _7
REMARK    5  A    between atoms: _7  and  _8
REMARK    6  A    between atoms: _10  and  _12
REMARK    7  A    between atoms: _12  and  _13
REMARK    8  A    between atoms: _12  and  _15
REMARK    9  A    between atoms: _15  and  _16
REMARK   10  A    between atoms: _16  and  _17
REMARK   11  A    between atoms: _19  and  _21
REMARK   12  A    between atoms: _21  and  _22
REMARK   13  A    between atoms: _21  and  _24
REMARK   14  A    between atoms: _24  and  _25
REMARK   15  A    between atoms: _25  and  _26
REMARK   16  A    between atoms: _26  and  _27
REMARK   17  A    between atoms: _27  and  _28
REMARK   18  A    between atoms: _32  and  _34
REMARK   19  A    between atoms: _34  and  _35
REMARK   20  A    between atoms: _34  and  _37
REMARK   21  A    between atoms: _37  and  _38
REMARK   22  A    between atoms: _38  and  _39
REMARK   23  A    between atoms: _39  and  _40
REMARK   24  A    between atoms: _40  and  _41
REMARK   25  A    between atoms: _46  and  _47
REMARK   26  A    between atoms: _52  and  _54
REMARK   27  A    between atoms: _54  and  _55
REMARK   28  A    between atoms: _54  and  _57
REMARK   29  A    between atoms: _60  and  _62
REMARK   30  A    between atoms: _62  and  _63
REMARK   31  A    between atoms: _62  and  _65
REMARK   32  A    between atoms: _65  and  _66
REMARK   33  A    between atoms: _71  and  _73
REMARK   34  A    between atoms: _73  and  _74
REMARK   35  A    between atoms: _73  and  _76
REMARK   36  A    between atoms: _76  and  _77
REMARK   37  A    between atoms: _80  and  _82
REMARK   38  A    between atoms: _82  and  _83
REMARK   39  A    between atoms: _82  and  _85
REMARK   40  A    between atoms: _85  and  _86
REMARK   41  A    between atoms: _92  and  _94
REMARK   42  A    between atoms: _94  and  _95
REMARK   43  A    between atoms: _94  and  _97
REMARK   44  A    between atoms: _97  and  _98
REMARK   45  A    between atoms: _98  and  _99
REMARK   46  A    between atoms: _99  and  _100
REMARK   47  A    between atoms: _100  and  _101
REMARK   48  A    between atoms: _105  and  _107
REMARK   49  A    between atoms: _107  and  _108
REMARK   50  A    between atoms: _107  and  _110
REMARK   51  A    between atoms: _110  and  _111
REMARK   52  A    between atoms: _116  and  _118
REMARK   53  A    between atoms: _118  and  _119
REMARK   54  A    between atoms: _118  and  _121
REMARK   55  A    between atoms: _121  and  _122
REMARK   56  A    between atoms: _125  and  _127
REMARK   57  A    between atoms: _127  and  _128
REMARK   58  A    between atoms: _127  and  _130
REMARK   59  A    between atoms: _130  and  _131
REMARK   60  A    between atoms: _134  and  _136
REMARK   61  A    between atoms: _136  and  _137
REMARK   62  A    between atoms: _136  and  _139
REMARK   63  A    between atoms: _139  and  _140
REMARK   64  A    between atoms: _143  and  _145
REMARK   65  A    between atoms: _145  and  _146
REMARK   66  A    between atoms: _145  and  _148
REMARK   67  A    between atoms: _150  and  _152
REMARK   68  A    between atoms: _152  and  _153
REMARK   69  A    between atoms: _152  and  _155
REMARK   70  A    between atoms: _155  and  _156
REMARK   71  A    between atoms: _156  and  _157
REMARK   72  A    between atoms: _157  and  _158
REMARK   73  A    between atoms: _167  and  _169
REMARK   74  A    between atoms: _169  and  _170
REMARK   75  A    between atoms: _169  and  _172
REMARK   76  A    between atoms: _172  and  _173
REMARK   77  A    between atoms: _173  and  _174
REMARK   78  A    between atoms: _174  and  _175
REMARK   79  A    between atoms: _175  and  _176
REMARK   80  A    between atoms: _180  and  _182
REMARK   81  A    between atoms: _182  and  _183
REMARK   82  A    between atoms: _182  and  _185
REMARK   83  A    between atoms: _185  and  _186
REMARK   84  A    between atoms: _191  and  _193
REMARK   85  A    between atoms: _193  and  _194
REMARK   86  A    between atoms: _193  and  _196
REMARK   87  A    between atoms: _196  and  _197
REMARK   88  A    between atoms: _200  and  _202
REMARK   89  A    between atoms: _202  and  _203
REMARK   90  A    between atoms: _206  and  _208
REMARK   91  A    between atoms: _208  and  _209
REMARK   92  A    between atoms: _208  and  _211
REMARK   93  A    between atoms: _214  and  _216
REMARK   94  A    between atoms: _216  and  _217
REMARK   95  A    between atoms: _216  and  _219
REMARK   96  A    between atoms: _219  and  _220
REMARK   97  A    between atoms: _225  and  _227
REMARK   98  A    between atoms: _227  and  _228
REMARK   99  A    between atoms: _227  and  _230
REMARK  100  A    between atoms: _230  and  _231
REMARK  101  A    between atoms: _237  and  _239
REMARK  102  A    between atoms: _239  and  _240
REMARK  103  A    between atoms: _239  and  _242
REMARK  104  A    between atoms: _242  and  _243
REMARK  105  A    between atoms: _246  and  _248
REMARK  106  A    between atoms: _248  and  _249
REMARK  107  A    between atoms: _252  and  _254
REMARK  108  A    between atoms: _254  and  _255
REMARK  109  A    between atoms: _254  and  _257
REMARK  110  A    between atoms: _257  and  _258
REMARK  111  A    between atoms: _260  and  _262
REMARK  112  A    between atoms: _262  and  _263
REMARK  113  A    between atoms: _262  and  _265
REMARK  114  A    between atoms: _269  and  _271
REMARK  115  A    between atoms: _271  and  _272
REMARK  116  A    between atoms: _271  and  _274
REMARK  117  A    between atoms: _274  and  _275
REMARK  118  A    between atoms: _275  and  _276
REMARK  119  A    between atoms: _276  and  _277
REMARK  120  A    between atoms: _277  and  _278
REMARK  121  A    between atoms: _282  and  _284
REMARK  122  A    between atoms: _284  and  _285
REMARK  123  A    between atoms: _284  and  _287
REMARK  124  A    between atoms: _287  and  _288
REMARK  125  A    between atoms: _294  and  _296
REMARK  126  A    between atoms: _296  and  _297
REMARK  127  A    between atoms: _296  and  _299
REMARK  128  A    between atoms: _299  and  _300
REMARK  129  A    between atoms: _300  and  _301
REMARK  130  A    between atoms: _306  and  _308
REMARK  131  A    between atoms: _308  and  _309
REMARK  132  A    between atoms: _308  and  _311
REMARK  133  A    between atoms: _311  and  _312
REMARK                            x       y       z     vdW  Elec       q    Type
REMARK                         _______ _______ _______ _____ _____    ______ ____
ROOT
ATOM      1  C   LYS A   1      32.510  37.420  -6.370  0.00  0.00    +0.238 C 
ATOM      2  O   LYS A   1      32.813  36.274  -6.023  0.00  0.00    -0.274 OA
ATOM      3  N   HIS A   2      33.404  38.406  -6.424  0.00  0.00    -0.298 N 
ATOM      4  H   HIS A   2      33.178  39.304  -6.897  0.00  0.00    +0.150 HD
ENDROOT
BRANCH   1   5
ATOM      5  CA  LYS A   1      31.077  37.768  -6.741  0.00  0.00    +0.145 C 
BRANCH   5   6
ATOM      6  N   LYS A   1      30.310  36.551  -7.053  0.00  0.00    -0.238 NA
ATOM      7  H   LYS A   1      30.484  35.690  -6.497  0.00  0.00    +0.142 HD
ENDBRANCH   5   6
BRANCH   5   8
ATOM      8  CB  LYS A   1      30.448  38.505  -5.541  0.00  0.00    +0.026 C 
BRANCH   8   9
ATOM      9  CG  LYS A   1      29.051  39.084  -5.801  0.00  0.00    -0.000 C 
BRANCH   9  10
ATOM     10  CD  LYS A   1      28.477  39.703  -4.542  0.00  0.00    -0.024 C 
BRANCH  10  11
ATOM     11  CE  LYS A   1      28.956  41.147  -4.390  0.00  0.00    -0.086 C 
BRANCH  11  12
ATOM     12  NZ  LYS A   1      28.474  41.747  -3.116  0.00  0.00    +0.380 N 
ATOM     13  HZ1 LYS A   1      28.836  41.192  -2.314  0.00  0.00    -0.089 HD
ATOM     14  HZ2 LYS A   1      28.816  42.726  -3.044  0.00  0.00    -0.089 HD
ATOM     15  HZ3 LYS A   1      27.434  41.740  -3.103  0.00  0.00    -0.089 HD
ENDBRANCH  11  12
ENDBRANCH  10  11
ENDBRANCH   9  10
ENDBRANCH   8   9
ENDBRANCH   5   8
ENDBRANCH   1   5
BRANCH   3  16
ATOM     16  CA  HIS A   2      34.709  38.197  -5.803  0.00  0.00    +0.143 C 
BRANCH  16  17
ATOM     17  C   HIS A   2      34.557  38.197  -4.295  0.00  0.00    +0.227 C 
ATOM     18  O   HIS A   2      33.683  38.882  -3.749  0.00  0.00    -0.286 OA
ENDBRANCH  16  17
BRANCH  16  19
ATOM     19  CB  HIS A   2      35.726  39.261  -6.234  0.00  0.00    +0.075 C 
BRANCH  19  20
ATOM     20  CG  HIS A   2      35.912  39.359  -7.711  0.00  0.00    +0.082 A 
ATOM     21  ND1 HIS A   2      36.935  38.717  -8.378  0.00  0.00    -0.227 NA
ATOM     22  CE1 HIS A   2      36.850  38.987  -9.668  0.00  0.00    +0.199 A 
ATOM     23  NE2 HIS A   2      35.812  39.782  -9.861  0.00  0.00    -0.221 NA
ATOM     24  CD2 HIS A   2      35.213  40.037  -8.652  0.00  0.00    +0.115 A 
ENDBRANCH  19  20
ENDBRANCH  16  19
ENDBRANCH   3  16
TORSDOF 11
REMARK  Name = ../refined-set-2016/3djx/3djx_pocket.pdb
REMARK  133 active torsions:
REMARK  status: ('A' for Active; 'I' for Inactive)
REMARK    1  A    between atoms: _1  and  _3
REMARK    2  A    between atoms: _3  and  _4
REMARK    3  A    between atoms: _3  and  _6
REMARK    4  A    between atoms: _6  and  _7
REMARK    5  A    between atoms: _7  and  _8
REMARK    6  A    between atoms: _10  and  _12
REMARK    7  A    between atoms: _12  and  _13
REMARK    8  A    between atoms: _12  and  _15
REMARK    9  A    between atoms: _15  and  _16
REMARK   10  A    between atoms: _16  and  _17
REMARK   11  A    between atoms: _19  and  _21
REMARK   12  A    between atoms: _21  and  _22
REMARK   13  A    between atoms: _21  and  _24
REMARK   14  A    between atoms: _24  and  _25
REMARK   15  A    between atoms: _25  and  _26
REMARK   16  A    between atoms: _26  and  _27
REMARK   17  A    between atoms: _27  and  _28
REMARK   18  A    between atoms: _32  and  _34
REMARK   19  A    between atoms: _34  and  _35
REMARK   20  A    between atoms: _34  and  _37
REMARK   21  A    between atoms: _37  and  _38
REMARK   22  A    between atoms: _38  and  _39
REMARK   23  A    between atoms: _39  and  _40
REMARK   24  A    between atoms: _40  and  _41
REMARK   25  A    between atoms: _46  and  _47
REMARK   26  A    between atoms: _52  and  _54
REMARK   27  A    between atoms: _54  and  _55
REMARK   28  A    between atoms: _54  and  _57
REMARK   29  A    between atoms: _60  and  _62
REMARK   30  A    between atoms: _62  and  _63
REMARK   31  A    between atoms: _62  and  _65
REMARK   32  A    between atoms: _65  and  _66
REMARK   33  A    between atoms: _71  and  _73
REMARK   34  A    between atoms: _73  and  _74
REMARK   35  A    between atoms: _73  and  _76
REMARK   36  A    between atoms: _76  and  _77
REMARK   37  A    between atoms: _80  and  _82
REMARK   38  A    between atoms: _82  and  _83
REMARK   39  A    between atoms: _82  and  _85
REMARK   40  A    between atoms: _85  and  _86
REMARK   41  A    between atoms: _92  and  _94
REMARK   42  A    between atoms: _94  and  _95
REMARK   43  A    between atoms: _94  and  _97
REMARK   44  A    between atoms: _97  and  _98
REMARK   45  A    between atoms: _98  and  _99
REMARK   46  A    between atoms: _99  and  _100
REMARK   47  A    between atoms: _100  and  _101
REMARK   48  A    between atoms: _105  and  _107
REMARK   49  A    between atoms: _107  and  _108
REMARK   50  A    between atoms: _107  and  _110
REMARK   51  A    between atoms: _110  and  _111
REMARK   52  A    between atoms: _116  and  _118
REMARK   53  A    between atoms: _118  and  _119
REMARK   54  A    between atoms: _118  and  _121
REMARK   55  A    between atoms: _121  and  _122
REMARK   56  A    between atoms: _125  and  _127
REMARK   57  A    between atoms: _127  and  _128
REMARK   58  A    between atoms: _127  and  _130
REMARK   59  A    between atoms: _130  and  _131
REMARK   60  A    between atoms: _134  and  _136
REMARK   61  A    between atoms: _136  and  _137
REMARK   62  A    between atoms: _136  and  _139
REMARK   63  A    between atoms: _139  and  _140
REMARK   64  A    between atoms: _143  and  _145
REMARK   65  A    between atoms: _145  and  _146
REMARK   66  A    between atoms: _145  and  _148
REMARK   67  A    between atoms: _150  and  _152
REMARK   68  A    between atoms: _152  and  _153
REMARK   69  A    between atoms: _152  and  _155
REMARK   70  A    between atoms: _155  and  _156
REMARK   71  A    between atoms: _156  and  _157
REMARK   72  A    between atoms: _157  and  _158
REMARK   73  A    between atoms: _167  and  _169
REMARK   74  A    between atoms: _169  and  _170
REMARK   75  A    between atoms: _169  and  _172
REMARK   76  A    between atoms: _172  and  _173
REMARK   77  A    between atoms: _173  and  _174
REMARK   78  A    between atoms: _174  and  _175
REMARK   79  A    between atoms: _175  and  _176
REMARK   80  A    between atoms: _180  and  _182
REMARK   81  A    between atoms: _182  and  _183
REMARK   82  A    between atoms: _182  and  _185
REMARK   83  A    between atoms: _185  and  _186
REMARK   84  A    between atoms: _191  and  _193
REMARK   85  A    between atoms: _193  and  _194
REMARK   86  A    between atoms: _193  and  _196
REMARK   87  A    between atoms: _196  and  _197
REMARK   88  A    between atoms: _200  and  _202
REMARK   89  A    between atoms: _202  and  _203
REMARK   90  A    between atoms: _206  and  _208
REMARK   91  A    between atoms: _208  and  _209
REMARK   92  A    between atoms: _208  and  _211
REMARK   93  A    between atoms: _214  and  _216
REMARK   94  A    between atoms: _216  and  _217
REMARK   95  A    between atoms: _216  and  _219
REMARK   96  A    between atoms: _219  and  _220
REMARK   97  A    between atoms: _225  and  _227
REMARK   98  A    between atoms: _227  and  _228
REMARK   99  A    between atoms: _227  and  _230
REMARK  100  A    between atoms: _230  and  _231
REMARK  101  A    between atoms: _237  and  _239
REMARK  102  A    between atoms: _239  and  _240
REMARK  103  A    between atoms: _239  and  _242
REMARK  104  A    between atoms: _242  and  _243
REMARK  105  A    between atoms: _246  and  _248
REMARK  106  A    between atoms: _248  and  _249
REMARK  107  A    between atoms: _252  and  _254
REMARK  108  A    between atoms: _254  and  _255
REMARK  109  A    between atoms: _254  and  _257
REMARK  110  A    between atoms: _257  and  _258
REMARK  111  A    between atoms: _260  and  _262
REMARK  112  A    between atoms: _262  and  _263
REMARK  113  A    between atoms: _262  and  _265
REMARK  114  A    between atoms: _269  and  _271
REMARK  115  A    between atoms: _271  and  _272
REMARK  116  A    between atoms: _271  and  _274
REMARK  117  A    between atoms: _274  and  _275
REMARK  118  A    between atoms: _275  and  _276
REMARK  119  A    between atoms: _276  and  _277
REMARK  120  A    between atoms: _277  and  _278
REMARK  121  A    between atoms: _282  and  _284
REMARK  122  A    between atoms: _284  and  _285
REMARK  123  A    between atoms: _284  and  _287
REMARK  124  A    between atoms: _287  and  _288
REMARK  125  A    between atoms: _294  and  _296
REMARK  126  A    between atoms: _296  and  _297
REMARK  127  A    between atoms: _296  and  _299
REMARK  128  A    between atoms: _299  and  _300
REMARK  129  A    between atoms: _300  and  _301
REMARK  130  A    between atoms: _306  and  _308
REMARK  131  A    between atoms: _308  and  _309
REMARK  132  A    between atoms: _308  and  _311
REMARK  133  A    between atoms: _311  and  _312
REMARK                            x       y       z     vdW  Elec       q    Type
REMARK                         _______ _______ _______ _____ _____    ______ ____
ROOT
ATOM      1  CA  ILE A   1      37.640  39.238   0.220  0.00  0.00    +0.133 C 
ENDROOT
BRANCH   1   2
ATOM      2  N   ILE A   1      36.477  38.698  -0.470  0.00  0.00    -0.239 NA
ATOM      3  H   ILE A   1      35.533  38.809  -0.047  0.00  0.00    +0.142 HD
ENDBRANCH   1   2
BRANCH   1   4
ATOM      4  C   ILE A   1      37.662  38.566   1.580  0.00  0.00    +0.224 C 
ATOM      5  O   ILE A   1      36.658  38.614   2.325  0.00  0.00    -0.287 OA
ENDBRANCH   1   4
BRANCH   1   6
ATOM      6  CB  ILE A   1      37.538  40.759   0.402  0.00  0.00    +0.023 C 
ATOM      7  CG2 ILE A   1      38.746  41.279   1.197  0.00  0.00    +0.002 C 
BRANCH   6   8
ATOM      8  CG1 ILE A   1      37.456  41.453  -0.960  0.00  0.00    +0.002 C 
ATOM      9  CD1 ILE A   1      37.307  42.982  -0.854  0.00  0.00    +0.000 C 
ENDBRANCH   6   8
ENDBRANCH   1   6
TORSDOF 4
REMARK  Name = ../refined-set-2016/3djx/3djx_pocket.pdb
REMARK  133 active torsions:
REMARK  status: ('A' for Active; 'I' for Inactive)
REMARK    1  A    between atoms: _1  and  _3
REMARK    2  A    between atoms: _3  and  _4
REMARK    3  A    between atoms: _3  and  _6
REMARK    4  A    between atoms: _6  and  _7
REMARK    5  A    between atoms: _7  and  _8
REMARK    6  A    between atoms: _10  and  _12
REMARK    7  A    between atoms: _12  and  _13
REMARK    8  A    between atoms: _12  and  _15
REMARK    9  A    between atoms: _15  and  _16
REMARK   10  A    between atoms: _16  and  _17
REMARK   11  A    between atoms: _19  and  _21
REMARK   12  A    between atoms: _21  and  _22
REMARK   13  A    between atoms: _21  and  _24
REMARK   14  A    between atoms: _24  and  _25
REMARK   15  A    between atoms: _25  and  _26
REMARK   16  A    between atoms: _26  and  _27
REMARK   17  A    between atoms: _27  and  _28
REMARK   18  A    between atoms: _32  and  _34
REMARK   19  A    between atoms: _34  and  _35
REMARK   20  A    between atoms: _34  and  _37
REMARK   21  A    between atoms: _37  and  _38
REMARK   22  A    between atoms: _38  and  _39
REMARK   23  A    between atoms: _39  and  _40
REMARK   24  A    between atoms: _40  and  _41
REMARK   25  A    between atoms: _46  and  _47
REMARK   26  A    between atoms: _52  and  _54
REMARK   27  A    between atoms: _54  and  _55
REMARK   28  A    between atoms: _54  and  _57
REMARK   29  A    between atoms: _60  and  _62
REMARK   30  A    between atoms: _62  and  _63
REMARK   31  A    between atoms: _62  and  _65
REMARK   32  A    between atoms: _65  and  _66
REMARK   33  A    between atoms: _71  and  _73
REMARK   34  A    between atoms: _73  and  _74
REMARK   35  A    between atoms: _73  and  _76
REMARK   36  A    between atoms: _76  and  _77
REMARK   37  A    between atoms: _80  and  _82
REMARK   38  A    between atoms: _82  and  _83
REMARK   39  A    between atoms: _82  and  _85
REMARK   40  A    between atoms: _85  and  _86
REMARK   41  A    between atoms: _92  and  _94
REMARK   42  A    between atoms: _94  and  _95
REMARK   43  A    between atoms: _94  and  _97
REMARK   44  A    between atoms: _97  and  _98
REMARK   45  A    between atoms: _98  and  _99
REMARK   46  A    between atoms: _99  and  _100
REMARK   47  A    between atoms: _100  and  _101
REMARK   48  A    between atoms: _105  and  _107
REMARK   49  A    between atoms: _107  and  _108
REMARK   50  A    between atoms: _107  and  _110
REMARK   51  A    between atoms: _110  and  _111
REMARK   52  A    between atoms: _116  and  _118
REMARK   53  A    between atoms: _118  and  _119
REMARK   54  A    between atoms: _118  and  _121
REMARK   55  A    between atoms: _121  and  _122
REMARK   56  A    between atoms: _125  and  _127
REMARK   57  A    between atoms: _127  and  _128
REMARK   58  A    between atoms: _127  and  _130
REMARK   59  A    between atoms: _130  and  _131
REMARK   60  A    between atoms: _134  and  _136
REMARK   61  A    between atoms: _136  and  _137
REMARK   62  A    between atoms: _136  and  _139
REMARK   63  A    between atoms: _139  and  _140
REMARK   64  A    between atoms: _143  and  _145
REMARK   65  A    between atoms: _145  and  _146
REMARK   66  A    between atoms: _145  and  _148
REMARK   67  A    between atoms: _150  and  _152
REMARK   68  A    between atoms: _152  and  _153
REMARK   69  A    between atoms: _152  and  _155
REMARK   70  A    between atoms: _155  and  _156
REMARK   71  A    between atoms: _156  and  _157
REMARK   72  A    between atoms: _157  and  _158
REMARK   73  A    between atoms: _167  and  _169
REMARK   74  A    between atoms: _169  and  _170
REMARK   75  A    between atoms: _169  and  _172
REMARK   76  A    between atoms: _172  and  _173
REMARK   77  A    between atoms: _173  and  _174
REMARK   78  A    between atoms: _174  and  _175
REMARK   79  A    between atoms: _175  and  _176
REMARK   80  A    between atoms: _180  and  _182
REMARK   81  A    between atoms: _182  and  _183
REMARK   82  A    between atoms: _182  and  _185
REMARK   83  A    between atoms: _185  and  _186
REMARK   84  A    between atoms: _191  and  _193
REMARK   85  A    between atoms: _193  and  _194
REMARK   86  A    between atoms: _193  and  _196
REMARK   87  A    between atoms: _196  and  _197
REMARK   88  A    between atoms: _200  and  _202
REMARK   89  A    between atoms: _202  and  _203
REMARK   90  A    between atoms: _206  and  _208
REMARK   91  A    between atoms: _208  and  _209
REMARK   92  A    between atoms: _208  and  _211
REMARK   93  A    between atoms: _214  and  _216
REMARK   94  A    between atoms: _216  and  _217
REMARK   95  A    between atoms: _216  and  _219
REMARK   96  A    between atoms: _219  and  _220
REMARK   97  A    between atoms: _225  and  _227
REMARK   98  A    between atoms: _227  and  _228
REMARK   99  A    between atoms: _227  and  _230
REMARK  100  A    between atoms: _230  and  _231
REMARK  101  A    between atoms: _237  and  _239
REMARK  102  A    between atoms: _239  and  _240
REMARK  103  A    between atoms: _239  and  _242
REMARK  104  A    between atoms: _242  and  _243
REMARK  105  A    between atoms: _246  and  _248
REMARK  106  A    between atoms: _248  and  _249
REMARK  107  A    between atoms: _252  and  _254
REMARK  108  A    between atoms: _254  and  _255
REMARK  109  A    between atoms: _254  and  _257
REMARK  110  A    between atoms: _257  and  _258
REMARK  111  A    between atoms: _260  and  _262
REMARK  112  A    between atoms: _262  and  _263
REMARK  113  A    between atoms: _262  and  _265
REMARK  114  A    between atoms: _269  and  _271
REMARK  115  A    between atoms: _271  and  _272
REMARK  116  A    between atoms: _271  and  _274
REMARK  117  A    between atoms: _274  and  _275
REMARK  118  A    between atoms: _275  and  _276
REMARK  119  A    between atoms: _276  and  _277
REMARK  120  A    between atoms: _277  and  _278
REMARK  121  A    between atoms: _282  and  _284
REMARK  122  A    between atoms: _284  and  _285
REMARK  123  A    between atoms: _284  and  _287
REMARK  124  A    between atoms: _287  and  _288
REMARK  125  A    between atoms: _294  and  _296
REMARK  126  A    between atoms: _296  and  _297
REMARK  127  A    between atoms: _296  and  _299
REMARK  128  A    between atoms: _299  and  _300
REMARK  129  A    between atoms: _300  and  _301
REMARK  130  A    between atoms: _306  and  _308
REMARK  131  A    between atoms: _308  and  _309
REMARK  132  A    between atoms: _308  and  _311
REMARK  133  A    between atoms: _311  and  _312
REMARK                            x       y       z     vdW  Elec       q    Type
REMARK                         _______ _______ _______ _____ _____    ______ ____
ROOT
ATOM      1  CA  ALA A   1      41.459  37.856   5.929  0.00  0.00    +0.133 C 
ATOM      2  CB  ALA A   1      41.161  38.452   7.295  0.00  0.00    +0.027 C 
ENDROOT
BRANCH   1   3
ATOM      3  N   ALA A   1      40.240  37.613   5.191  0.00  0.00    -0.239 NA
ATOM      4  H   ALA A   1      39.377  37.344   5.705  0.00  0.00    +0.142 HD
ENDBRANCH   1   3
BRANCH   1   5
ATOM      5  C   ALA A   1      42.138  36.499   6.080  0.00  0.00    +0.224 C 
ATOM      6  O   ALA A   1      41.474  35.486   6.338  0.00  0.00    -0.287 OA
ENDBRANCH   1   5
TORSDOF 2
REMARK  Name = ../refined-set-2016/3djx/3djx_pocket.pdb
REMARK  133 active torsions:
REMARK  status: ('A' for Active; 'I' for Inactive)
REMARK    1  A    between atoms: _1  and  _3
REMARK    2  A    between atoms: _3  and  _4
REMARK    3  A    between atoms: _3  and  _6
REMARK    4  A    between atoms: _6  and  _7
REMARK    5  A    between atoms: _7  and  _8
REMARK    6  A    between atoms: _10  and  _12
REMARK    7  A    between atoms: _12  and  _13
REMARK    8  A    between atoms: _12  and  _15
REMARK    9  A    between atoms: _15  and  _16
REMARK   10  A    between atoms: _16  and  _17
REMARK   11  A    between atoms: _19  and  _21
REMARK   12  A    between atoms: _21  and  _22
REMARK   13  A    between atoms: _21  and  _24
REMARK   14  A    between atoms: _24  and  _25
REMARK   15  A    between atoms: _25  and  _26
REMARK   16  A    between atoms: _26  and  _27
REMARK   17  A    between atoms: _27  and  _28
REMARK   18  A    between atoms: _32  and  _34
REMARK   19  A    between atoms: _34  and  _35
REMARK   20  A    between atoms: _34  and  _37
REMARK   21  A    between atoms: _37  and  _38
REMARK   22  A    between atoms: _38  and  _39
REMARK   23  A    between atoms: _39  and  _40
REMARK   24  A    between atoms: _40  and  _41
REMARK   25  A    between atoms: _46  and  _47
REMARK   26  A    between atoms: _52  and  _54
REMARK   27  A    between atoms: _54  and  _55
REMARK   28  A    between atoms: _54  and  _57
REMARK   29  A    between atoms: _60  and  _62
REMARK   30  A    between atoms: _62  and  _63
REMARK   31  A    between atoms: _62  and  _65
REMARK   32  A    between atoms: _65  and  _66
REMARK   33  A    between atoms: _71  and  _73
REMARK   34  A    between atoms: _73  and  _74
REMARK   35  A    between atoms: _73  and  _76
REMARK   36  A    between atoms: _76  and  _77
REMARK   37  A    between atoms: _80  and  _82
REMARK   38  A    between atoms: _82  and  _83
REMARK   39  A    between atoms: _82  and  _85
REMARK   40  A    between atoms: _85  and  _86
REMARK   41  A    between atoms: _92  and  _94
REMARK   42  A    between atoms: _94  and  _95
REMARK   43  A    between atoms: _94  and  _97
REMARK   44  A    between atoms: _97  and  _98
REMARK   45  A    between atoms: _98  and  _99
REMARK   46  A    between atoms: _99  and  _100
REMARK   47  A    between atoms: _100  and  _101
REMARK   48  A    between atoms: _105  and  _107
REMARK   49  A    between atoms: _107  and  _108
REMARK   50  A    between atoms: _107  and  _110
REMARK   51  A    between atoms: _110  and  _111
REMARK   52  A    between atoms: _116  and  _118
REMARK   53  A    between atoms: _118  and  _119
REMARK   54  A    between atoms: _118  and  _121
REMARK   55  A    between atoms: _121  and  _122
REMARK   56  A    between atoms: _125  and  _127
REMARK   57  A    between atoms: _127  and  _128
REMARK   58  A    between atoms: _127  and  _130
REMARK   59  A    between atoms: _130  and  _131
REMARK   60  A    between atoms: _134  and  _136
REMARK   61  A    between atoms: _136  and  _137
REMARK   62  A    between atoms: _136  and  _139
REMARK   63  A    between atoms: _139  and  _140
REMARK   64  A    between atoms: _143  and  _145
REMARK   65  A    between atoms: _145  and  _146
REMARK   66  A    between atoms: _145  and  _148
REMARK   67  A    between atoms: _150  and  _152
REMARK   68  A    between atoms: _152  and  _153
REMARK   69  A    between atoms: _152  and  _155
REMARK   70  A    between atoms: _155  and  _156
REMARK   71  A    between atoms: _156  and  _157
REMARK   72  A    between atoms: _157  and  _158
REMARK   73  A    between atoms: _167  and  _169
REMARK   74  A    between atoms: _169  and  _170
REMARK   75  A    between atoms: _169  and  _172
REMARK   76  A    between atoms: _172  and  _173
REMARK   77  A    between atoms: _173  and  _174
REMARK   78  A    between atoms: _174  and  _175
REMARK   79  A    between atoms: _175  and  _176
REMARK   80  A    between atoms: _180  and  _182
REMARK   81  A    between atoms: _182  and  _183
REMARK   82  A    between atoms: _182  and  _185
REMARK   83  A    between atoms: _185  and  _186
REMARK   84  A    between atoms: _191  and  _193
REMARK   85  A    between atoms: _193  and  _194
REMARK   86  A    between atoms: _193  and  _196
REMARK   87  A    between atoms: _196  and  _197
REMARK   88  A    between atoms: _200  and  _202
REMARK   89  A    between atoms: _202  and  _203
REMARK   90  A    between atoms: _206  and  _208
REMARK   91  A    between atoms: _208  and  _209
REMARK   92  A    between atoms: _208  and  _211
REMARK   93  A    between atoms: _214  and  _216
REMARK   94  A    between atoms: _216  and  _217
REMARK   95  A    between atoms: _216  and  _219
REMARK   96  A    between atoms: _219  and  _220
REMARK   97  A    between atoms: _225  and  _227
REMARK   98  A    between atoms: _227  and  _228
REMARK   99  A    between atoms: _227  and  _230
REMARK  100  A    between atoms: _230  and  _231
REMARK  101  A    between atoms: _237  and  _239
REMARK  102  A    between atoms: _239  and  _240
REMARK  103  A    between atoms: _239  and  _242
REMARK  104  A    between atoms: _242  and  _243
REMARK  105  A    between atoms: _246  and  _248
REMARK  106  A    between atoms: _248  and  _249
REMARK  107  A    between atoms: _252  and  _254
REMARK  108  A    between atoms: _254  and  _255
REMARK  109  A    between atoms: _254  and  _257
REMARK  110  A    between atoms: _257  and  _258
REMARK  111  A    between atoms: _260  and  _262
REMARK  112  A    between atoms: _262  and  _263
REMARK  113  A    between atoms: _262  and  _265
REMARK  114  A    between atoms: _269  and  _271
REMARK  115  A    between atoms: _271  and  _272
REMARK  116  A    between atoms: _271  and  _274
REMARK  117  A    between atoms: _274  and  _275
REMARK  118  A    between atoms: _275  and  _276
REMARK  119  A    between atoms: _276  and  _277
REMARK  120  A    between atoms: _277  and  _278
REMARK  121  A    between atoms: _282  and  _284
REMARK  122  A    between atoms: _284  and  _285
REMARK  123  A    between atoms: _284  and  _287
REMARK  124  A    between atoms: _287  and  _288
REMARK  125  A    between atoms: _294  and  _296
REMARK  126  A    between atoms: _296  and  _297
REMARK  127  A    between atoms: _296  and  _299
REMARK  128  A    between atoms: _299  and  _300
REMARK  129  A    between atoms: _300  and  _301
REMARK  130  A    between atoms: _306  and  _308
REMARK  131  A    between atoms: _308  and  _309
REMARK  132  A    between atoms: _308  and  _311
REMARK  133  A    between atoms: _311  and  _312
REMARK                            x       y       z     vdW  Elec       q    Type
REMARK                         _______ _______ _______ _____ _____    ______ ____
ROOT
ATOM      1  C   PHE A   3      34.931  38.340   5.748  0.00  0.00    +0.241 C 
ATOM      2  O   PHE A   3      34.196  38.828   6.620  0.00  0.00    -0.273 OA
ATOM      3  N   ASP A   4      35.601  39.084   4.863  0.00  0.00    -0.297 N 
ATOM      4  H   ASP A   4      36.154  38.621   4.114  0.00  0.00    +0.150 HD
ENDROOT
BRANCH   3   5
ATOM      5  CA  ASP A   4      35.563  40.546   4.940  0.00  0.00    +0.160 C 
BRANCH   5   6
ATOM      6  C   ASP A   4      34.425  41.177   4.142  0.00  0.00    +0.241 C 
ATOM      7  O   ASP A   4      33.703  42.041   4.643  0.00  0.00    -0.273 OA
ATOM      8  N   ALA A   5      34.268  40.742   2.896  0.00  0.00    -0.297 N 
ATOM      9  H   ALA A   5      34.860  39.961   2.549  0.00  0.00    +0.150 HD
BRANCH   8  10
ATOM     10  CA  ALA A   5      33.275  41.344   2.002  0.00  0.00    +0.149 C 
ATOM     11  CB  ALA A   5      33.653  42.753   1.662  0.00  0.00    +0.031 C 
BRANCH  10  12
ATOM     12  C   ALA A   5      33.153  40.545   0.732  0.00  0.00    +0.241 C 
ATOM     13  O   ALA A   5      34.042  39.764   0.394  0.00  0.00    -0.273 OA
ATOM     14  N   SER A   6      32.046  40.756   0.034  0.00  0.00    -0.295 N 
ATOM     15  H   SER A   6      31.247  41.255   0.476  0.00  0.00    +0.150 HD
BRANCH  14  16
ATOM     16  CA  SER A   6      31.934  40.295  -1.353  0.00  0.00    +0.178 C 
BRANCH  16  17
ATOM     17  C   SER A   6      31.807  41.525  -2.247  0.00  0.00    +0.243 C 
ATOM     18  O   SER A   6      31.204  42.524  -1.845  0.00  0.00    -0.273 OA
ATOM     19  N   VAL A   7      32.437  41.485  -3.416  0.00  0.00    -0.295 N 
ATOM     20  H   VAL A   7      32.907  40.604  -3.707  0.00  0.00    +0.150 HD
BRANCH  19  21
ATOM     21  CA  VAL A   7      32.487  42.650  -4.307  0.00  0.00    +0.176 C 
BRANCH  21  22
ATOM     22  C   VAL A   7      32.143  42.270  -5.745  0.00  0.00    +0.382 C 
ATOM     23  OXT VAL A   7      32.300  41.117  -6.174  0.00  0.00    -0.244 OA
ATOM     24  O   VAL A   7      31.691  43.107  -6.510  0.00  0.00    -0.244 OA
ENDBRANCH  21  22
BRANCH  21  25
ATOM     25  CB  VAL A   7      33.855  43.410  -4.225  0.00  0.00    +0.029 C 
ATOM     26  CG2 VAL A   7      34.044  44.009  -2.841  0.00  0.00    +0.002 C 
ATOM     27  CG1 VAL A   7      35.017  42.497  -4.578  0.00  0.00    +0.002 C 
ENDBRANCH  21  25
ENDBRANCH  19  21
ENDBRANCH  16  17
BRANCH  16  28
ATOM     28  CB  SER A   6      30.754  39.335  -1.516  0.00  0.00    +0.166 C 
BRANCH  28  29
ATOM     29  OG  SER A   6      29.516  39.974  -1.258  0.00  0.00    -0.380 OA
ATOM     30  H   SER A   6      28.779  39.323  -1.373  0.00  0.00    +0.211 HD
ENDBRANCH  28  29
ENDBRANCH  16  28
ENDBRANCH  14  16
ENDBRANCH  10  12
ENDBRANCH   8  10
ENDBRANCH   5   6
BRANCH   5  31
ATOM     31  CB  ASP A   4      36.917  41.129   4.522  0.00  0.00    +0.143 C 
BRANCH  31  32
ATOM     32  CG  ASP A   4      37.177  42.505   5.117  0.00  0.00    +0.367 C 
ATOM     33  OD2 ASP A   4      37.251  42.637   6.360  0.00  0.00    -0.246 OA
ATOM     34  OD1 ASP A   4      37.323  43.450   4.336  0.00  0.00    -0.246 OA
ENDBRANCH  31  32
ENDBRANCH   5  31
ENDBRANCH   3   5
BRANCH   1  35
ATOM     35  CA  PHE A   3      35.158  36.846   5.685  0.00  0.00    +0.153 C 
BRANCH  35  37
ATOM     36  C   HIS A   2      37.051  36.258   7.054  0.00  0.00    +0.241 C 
ATOM     37  N   PHE A   3      35.738  36.435   6.949  0.00  0.00    -0.297 N 
ATOM     38  H   PHE A   3      35.125  36.278   7.775  0.00  0.00    +0.150 HD
ATOM     39  O   HIS A   2      37.818  36.317   6.095  0.00  0.00    -0.273 OA
BRANCH  36  40
ATOM     40  CA  HIS A   2      37.580  35.965   8.431  0.00  0.00    +0.155 C 
BRANCH  40  43
ATOM     41  C   VAL A   1      38.999  34.213   9.326  0.00  0.00    +0.238 C 
ATOM     42  O   VAL A   1      38.372  34.205  10.381  0.00  0.00    -0.274 OA
ATOM     43  N   HIS A   2      38.647  34.980   8.299  0.00  0.00    -0.297 N 
ATOM     44  H   HIS A   2      39.139  34.876   7.389  0.00  0.00    +0.150 HD
BRANCH  41  45
ATOM     45  CA  VAL A   1      40.208  33.298   9.122  0.00  0.00    +0.145 C 
BRANCH  45  46
ATOM     46  CB  VAL A   1      41.371  33.665  10.085  0.00  0.00    +0.025 C 
ATOM     47  CG2 VAL A   1      42.452  32.568  10.042  0.00  0.00    +0.002 C 
ATOM     48  CG1 VAL A   1      41.964  35.039   9.732  0.00  0.00    +0.002 C 
ENDBRANCH  45  46
BRANCH  45  49
ATOM     49  N   VAL A   1      40.658  33.257   7.731  0.00  0.00    -0.238 NA
ATOM     50  H   VAL A   1      40.949  34.140   7.264  0.00  0.00    +0.142 HD
ENDBRANCH  45  49
ENDBRANCH  41  45
ENDBRANCH  40  43
BRANCH  40  51
ATOM     51  CB  HIS A   2      38.169  37.223   9.083  0.00  0.00    +0.076 C 
BRANCH  51  52
ATOM     52  CG  HIS A   2      37.402  38.486   8.844  0.00  0.00    +0.082 A 
ATOM     53  ND1 HIS A   2      36.271  38.819   9.558  0.00  0.00    -0.227 NA
ATOM     54  CE1 HIS A   2      35.821  39.993   9.145  0.00  0.00    +0.199 A 
ATOM     55  NE2 HIS A   2      36.638  40.446   8.212  0.00  0.00    -0.221 NA
ATOM     56  CD2 HIS A   2      37.637  39.527   8.007  0.00  0.00    +0.115 A 
ENDBRANCH  51  52
ENDBRANCH  40  51
ENDBRANCH  36  40
ENDBRANCH  35  37
BRANCH  35  57
ATOM     57  CB  PHE A   3      33.851  36.103   5.390  0.00  0.00    +0.055 C 
BRANCH  57  58
ATOM     58  CG  PHE A   3      33.374  36.291   3.971  0.00  0.00    -0.020 A 
ATOM     59  CD2 PHE A   3      32.628  37.423   3.617  0.00  0.00    -0.004 A 
ATOM     60  CE2 PHE A   3      32.191  37.606   2.306  0.00  0.00    -0.000 A 
ATOM     61  CZ  PHE A   3      32.507  36.644   1.338  0.00  0.00    -0.000 A 
ATOM     62  CE1 PHE A   3      33.238  35.517   1.674  0.00  0.00    -0.000 A 
ATOM     63  CD1 PHE A   3      33.671  35.339   2.999  0.00  0.00    -0.004 A 
ENDBRANCH  57  58
ENDBRANCH  35  57
ENDBRANCH   1  35
TORSDOF 24
REMARK  Name = ../refined-set-2016/3djx/3djx_pocket.pdb
REMARK  133 active torsions:
REMARK  status: ('A' for Active; 'I' for Inactive)
REMARK    1  A    between atoms: _1  and  _3
REMARK    2  A    between atoms: _3  and  _4
REMARK    3  A    between atoms: _3  and  _6
REMARK    4  A    between atoms: _6  and  _7
REMARK    5  A    between atoms: _7  and  _8
REMARK    6  A    between atoms: _10  and  _12
REMARK    7  A    between atoms: _12  and  _13
REMARK    8  A    between atoms: _12  and  _15
REMARK    9  A    between atoms: _15  and  _16
REMARK   10  A    between atoms: _16  and  _17
REMARK   11  A    between atoms: _19  and  _21
REMARK   12  A    between atoms: _21  and  _22
REMARK   13  A    between atoms: _21  and  _24
REMARK   14  A    between atoms: _24  and  _25
REMARK   15  A    between atoms: _25  and  _26
REMARK   16  A    between atoms: _26  and  _27
REMARK   17  A    between atoms: _27  and  _28
REMARK   18  A    between atoms: _32  and  _34
REMARK   19  A    between atoms: _34  and  _35
REMARK   20  A    between atoms: _34  and  _37
REMARK   21  A    between atoms: _37  and  _38
REMARK   22  A    between atoms: _38  and  _39
REMARK   23  A    between atoms: _39  and  _40
REMARK   24  A    between atoms: _40  and  _41
REMARK   25  A    between atoms: _46  and  _47
REMARK   26  A    between atoms: _52  and  _54
REMARK   27  A    between atoms: _54  and  _55
REMARK   28  A    between atoms: _54  and  _57
REMARK   29  A    between atoms: _60  and  _62
REMARK   30  A    between atoms: _62  and  _63
REMARK   31  A    between atoms: _62  and  _65
REMARK   32  A    between atoms: _65  and  _66
REMARK   33  A    between atoms: _71  and  _73
REMARK   34  A    between atoms: _73  and  _74
REMARK   35  A    between atoms: _73  and  _76
REMARK   36  A    between atoms: _76  and  _77
REMARK   37  A    between atoms: _80  and  _82
REMARK   38  A    between atoms: _82  and  _83
REMARK   39  A    between atoms: _82  and  _85
REMARK   40  A    between atoms: _85  and  _86
REMARK   41  A    between atoms: _92  and  _94
REMARK   42  A    between atoms: _94  and  _95
REMARK   43  A    between atoms: _94  and  _97
REMARK   44  A    between atoms: _97  and  _98
REMARK   45  A    between atoms: _98  and  _99
REMARK   46  A    between atoms: _99  and  _100
REMARK   47  A    between atoms: _100  and  _101
REMARK   48  A    between atoms: _105  and  _107
REMARK   49  A    between atoms: _107  and  _108
REMARK   50  A    between atoms: _107  and  _110
REMARK   51  A    between atoms: _110  and  _111
REMARK   52  A    between atoms: _116  and  _118
REMARK   53  A    between atoms: _118  and  _119
REMARK   54  A    between atoms: _118  and  _121
REMARK   55  A    between atoms: _121  and  _122
REMARK   56  A    between atoms: _125  and  _127
REMARK   57  A    between atoms: _127  and  _128
REMARK   58  A    between atoms: _127  and  _130
REMARK   59  A    between atoms: _130  and  _131
REMARK   60  A    between atoms: _134  and  _136
REMARK   61  A    between atoms: _136  and  _137
REMARK   62  A    between atoms: _136  and  _139
REMARK   63  A    between atoms: _139  and  _140
REMARK   64  A    between atoms: _143  and  _145
REMARK   65  A    between atoms: _145  and  _146
REMARK   66  A    between atoms: _145  and  _148
REMARK   67  A    between atoms: _150  and  _152
REMARK   68  A    between atoms: _152  and  _153
REMARK   69  A    between atoms: _152  and  _155
REMARK   70  A    between atoms: _155  and  _156
REMARK   71  A    between atoms: _156  and  _157
REMARK   72  A    between atoms: _157  and  _158
REMARK   73  A    between atoms: _167  and  _169
REMARK   74  A    between atoms: _169  and  _170
REMARK   75  A    between atoms: _169  and  _172
REMARK   76  A    between atoms: _172  and  _173
REMARK   77  A    between atoms: _173  and  _174
REMARK   78  A    between atoms: _174  and  _175
REMARK   79  A    between atoms: _175  and  _176
REMARK   80  A    between atoms: _180  and  _182
REMARK   81  A    between atoms: _182  and  _183
REMARK   82  A    between atoms: _182  and  _185
REMARK   83  A    between atoms: _185  and  _186
REMARK   84  A    between atoms: _191  and  _193
REMARK   85  A    between atoms: _193  and  _194
REMARK   86  A    between atoms: _193  and  _196
REMARK   87  A    between atoms: _196  and  _197
REMARK   88  A    between atoms: _200  and  _202
REMARK   89  A    between atoms: _202  and  _203
REMARK   90  A    between atoms: _206  and  _208
REMARK   91  A    between atoms: _208  and  _209
REMARK   92  A    between atoms: _208  and  _211
REMARK   93  A    between atoms: _214  and  _216
REMARK   94  A    between atoms: _216  and  _217
REMARK   95  A    between atoms: _216  and  _219
REMARK   96  A    between atoms: _219  and  _220
REMARK   97  A    between atoms: _225  and  _227
REMARK   98  A    between atoms: _227  and  _228
REMARK   99  A    between atoms: _227  and  _230
REMARK  100  A    between atoms: _230  and  _231
REMARK  101  A    between atoms: _237  and  _239
REMARK  102  A    between atoms: _239  and  _240
REMARK  103  A    between atoms: _239  and  _242
REMARK  104  A    between atoms: _242  and  _243
REMARK  105  A    between atoms: _246  and  _248
REMARK  106  A    between atoms: _248  and  _249
REMARK  107  A    between atoms: _252  and  _254
REMARK  108  A    between atoms: _254  and  _255
REMARK  109  A    between atoms: _254  and  _257
REMARK  110  A    between atoms: _257  and  _258
REMARK  111  A    between atoms: _260  and  _262
REMARK  112  A    between atoms: _262  and  _263
REMARK  113  A    between atoms: _262  and  _265
REMARK  114  A    between atoms: _269  and  _271
REMARK  115  A    between atoms: _271  and  _272
REMARK  116  A    between atoms: _271  and  _274
REMARK  117  A    between atoms: _274  and  _275
REMARK  118  A    between atoms: _275  and  _276
REMARK  119  A    between atoms: _276  and  _277
REMARK  120  A    between atoms: _277  and  _278
REMARK  121  A    between atoms: _282  and  _284
REMARK  122  A    between atoms: _284  and  _285
REMARK  123  A    between atoms: _284  and  _287
REMARK  124  A    between atoms: _287  and  _288
REMARK  125  A    between atoms: _294  and  _296
REMARK  126  A    between atoms: _296  and  _297
REMARK  127  A    between atoms: _296  and  _299
REMARK  128  A    between atoms: _299  and  _300
REMARK  129  A    between atoms: _300  and  _301
REMARK  130  A    between atoms: _306  and  _308
REMARK  131  A    between atoms: _308  and  _309
REMARK  132  A    between atoms: _308  and  _311
REMARK  133  A    between atoms: _311  and  _312
REMARK                            x       y       z     vdW  Elec       q    Type
REMARK                         _______ _______ _______ _____ _____    ______ ____
ROOT
ATOM      1  C   LYS A   1      35.093  29.548  11.210  0.00  0.00    +0.238 C 
ATOM      2  O   LYS A   1      33.908  29.657  10.860  0.00  0.00    -0.274 OA
ATOM      3  N   PHE A   2      36.110  29.870  10.412  0.00  0.00    -0.298 N 
ATOM      4  H   PHE A   2      37.088  29.803  10.758  0.00  0.00    +0.150 HD
ENDROOT
BRANCH   1   5
ATOM      5  CA  LYS A   1      35.468  28.990  12.592  0.00  0.00    +0.145 C 
BRANCH   5   6
ATOM      6  N   LYS A   1      36.596  28.048  12.469  0.00  0.00    -0.238 NA
ATOM      7  H   LYS A   1      37.504  28.277  12.922  0.00  0.00    +0.142 HD
ENDBRANCH   5   6
BRANCH   5   8
ATOM      8  CB  LYS A   1      35.797  30.122  13.585  0.00  0.00    +0.026 C 
BRANCH   8   9
ATOM      9  CG  LYS A   1      34.715  31.209  13.664  0.00  0.00    -0.000 C 
BRANCH   9  10
ATOM     10  CD  LYS A   1      35.015  32.195  14.805  0.00  0.00    -0.024 C 
BRANCH  10  11
ATOM     11  CE  LYS A   1      34.150  33.452  14.712  0.00  0.00    -0.086 C 
BRANCH  11  12
ATOM     12  NZ  LYS A   1      34.466  34.372  15.855  0.00  0.00    +0.380 N 
ATOM     13  HZ1 LYS A   1      34.272  33.886  16.754  0.00  0.00    -0.089 HD
ATOM     14  HZ2 LYS A   1      35.470  34.641  15.815  0.00  0.00    -0.089 HD
ATOM     15  HZ3 LYS A   1      33.875  35.225  15.786  0.00  0.00    -0.089 HD
ENDBRANCH  11  12
ENDBRANCH  10  11
ENDBRANCH   9  10
ENDBRANCH   8   9
ENDBRANCH   5   8
ENDBRANCH   1   5
BRANCH   3  16
ATOM     16  CA  PHE A   2      35.843  30.317   9.052  0.00  0.00    +0.141 C 
BRANCH  16  17
ATOM     17  C   PHE A   2      35.122  29.222   8.262  0.00  0.00    +0.227 C 
ATOM     18  O   PHE A   2      34.159  29.508   7.559  0.00  0.00    -0.286 OA
ENDBRANCH  16  17
BRANCH  16  19
ATOM     19  CB  PHE A   2      37.123  30.763   8.346  0.00  0.00    +0.054 C 
BRANCH  19  20
ATOM     20  CG  PHE A   2      36.896  31.183   6.923  0.00  0.00    -0.020 A 
ATOM     21  CD2 PHE A   2      36.630  32.516   6.624  0.00  0.00    -0.004 A 
ATOM     22  CE2 PHE A   2      36.382  32.915   5.323  0.00  0.00    -0.000 A 
ATOM     23  CZ  PHE A   2      36.366  31.976   4.300  0.00  0.00    -0.000 A 
ATOM     24  CE1 PHE A   2      36.586  30.614   4.593  0.00  0.00    -0.000 A 
ATOM     25  CD1 PHE A   2      36.863  30.233   5.901  0.00  0.00    -0.004 A 
ENDBRANCH  19  20
ENDBRANCH  16  19
ENDBRANCH   3  16
TORSDOF 11
REMARK  Name = ../refined-set-2016/3djx/3djx_pocket.pdb
REMARK  133 active torsions:
REMARK  status: ('A' for Active; 'I' for Inactive)
REMARK    1  A    between atoms: _1  and  _3
REMARK    2  A    between atoms: _3  and  _4
REMARK    3  A    between atoms: _3  and  _6
REMARK    4  A    between atoms: _6  and  _7
REMARK    5  A    between atoms: _7  and  _8
REMARK    6  A    between atoms: _10  and  _12
REMARK    7  A    between atoms: _12  and  _13
REMARK    8  A    between atoms: _12  and  _15
REMARK    9  A    between atoms: _15  and  _16
REMARK   10  A    between atoms: _16  and  _17
REMARK   11  A    between atoms: _19  and  _21
REMARK   12  A    between atoms: _21  and  _22
REMARK   13  A    between atoms: _21  and  _24
REMARK   14  A    between atoms: _24  and  _25
REMARK   15  A    between atoms: _25  and  _26
REMARK   16  A    between atoms: _26  and  _27
REMARK   17  A    between atoms: _27  and  _28
REMARK   18  A    between atoms: _32  and  _34
REMARK   19  A    between atoms: _34  and  _35
REMARK   20  A    between atoms: _34  and  _37
REMARK   21  A    between atoms: _37  and  _38
REMARK   22  A    between atoms: _38  and  _39
REMARK   23  A    between atoms: _39  and  _40
REMARK   24  A    between atoms: _40  and  _41
REMARK   25  A    between atoms: _46  and  _47
REMARK   26  A    between atoms: _52  and  _54
REMARK   27  A    between atoms: _54  and  _55
REMARK   28  A    between atoms: _54  and  _57
REMARK   29  A    between atoms: _60  and  _62
REMARK   30  A    between atoms: _62  and  _63
REMARK   31  A    between atoms: _62  and  _65
REMARK   32  A    between atoms: _65  and  _66
REMARK   33  A    between atoms: _71  and  _73
REMARK   34  A    between atoms: _73  and  _74
REMARK   35  A    between atoms: _73  and  _76
REMARK   36  A    between atoms: _76  and  _77
REMARK   37  A    between atoms: _80  and  _82
REMARK   38  A    between atoms: _82  and  _83
REMARK   39  A    between atoms: _82  and  _85
REMARK   40  A    between atoms: _85  and  _86
REMARK   41  A    between atoms: _92  and  _94
REMARK   42  A    between atoms: _94  and  _95
REMARK   43  A    between atoms: _94  and  _97
REMARK   44  A    between atoms: _97  and  _98
REMARK   45  A    between atoms: _98  and  _99
REMARK   46  A    between atoms: _99  and  _100
REMARK   47  A    between atoms: _100  and  _101
REMARK   48  A    between atoms: _105  and  _107
REMARK   49  A    between atoms: _107  and  _108
REMARK   50  A    between atoms: _107  and  _110
REMARK   51  A    between atoms: _110  and  _111
REMARK   52  A    between atoms: _116  and  _118
REMARK   53  A    between atoms: _118  and  _119
REMARK   54  A    between atoms: _118  and  _121
REMARK   55  A    between atoms: _121  and  _122
REMARK   56  A    between atoms: _125  and  _127
REMARK   57  A    between atoms: _127  and  _128
REMARK   58  A    between atoms: _127  and  _130
REMARK   59  A    between atoms: _130  and  _131
REMARK   60  A    between atoms: _134  and  _136
REMARK   61  A    between atoms: _136  and  _137
REMARK   62  A    between atoms: _136  and  _139
REMARK   63  A    between atoms: _139  and  _140
REMARK   64  A    between atoms: _143  and  _145
REMARK   65  A    between atoms: _145  and  _146
REMARK   66  A    between atoms: _145  and  _148
REMARK   67  A    between atoms: _150  and  _152
REMARK   68  A    between atoms: _152  and  _153
REMARK   69  A    between atoms: _152  and  _155
REMARK   70  A    between atoms: _155  and  _156
REMARK   71  A    between atoms: _156  and  _157
REMARK   72  A    between atoms: _157  and  _158
REMARK   73  A    between atoms: _167  and  _169
REMARK   74  A    between atoms: _169  and  _170
REMARK   75  A    between atoms: _169  and  _172
REMARK   76  A    between atoms: _172  and  _173
REMARK   77  A    between atoms: _173  and  _174
REMARK   78  A    between atoms: _174  and  _175
REMARK   79  A    between atoms: _175  and  _176
REMARK   80  A    between atoms: _180  and  _182
REMARK   81  A    between atoms: _182  and  _183
REMARK   82  A    between atoms: _182  and  _185
REMARK   83  A    between atoms: _185  and  _186
REMARK   84  A    between atoms: _191  and  _193
REMARK   85  A    between atoms: _193  and  _194
REMARK   86  A    between atoms: _193  and  _196
REMARK   87  A    between atoms: _196  and  _197
REMARK   88  A    between atoms: _200  and  _202
REMARK   89  A    between atoms: _202  and  _203
REMARK   90  A    between atoms: _206  and  _208
REMARK   91  A    between atoms: _208  and  _209
REMARK   92  A    between atoms: _208  and  _211
REMARK   93  A    between atoms: _214  and  _216
REMARK   94  A    between atoms: _216  and  _217
REMARK   95  A    between atoms: _216  and  _219
REMARK   96  A    between atoms: _219  and  _220
REMARK   97  A    between atoms: _225  and  _227
REMARK   98  A    between atoms: _227  and  _228
REMARK   99  A    between atoms: _227  and  _230
REMARK  100  A    between atoms: _230  and  _231
REMARK  101  A    between atoms: _237  and  _239
REMARK  102  A    between atoms: _239  and  _240
REMARK  103  A    between atoms: _239  and  _242
REMARK  104  A    between atoms: _242  and  _243
REMARK  105  A    between atoms: _246  and  _248
REMARK  106  A    between atoms: _248  and  _249
REMARK  107  A    between atoms: _252  and  _254
REMARK  108  A    between atoms: _254  and  _255
REMARK  109  A    between atoms: _254  and  _257
REMARK  110  A    between atoms: _257  and  _258
REMARK  111  A    between atoms: _260  and  _262
REMARK  112  A    between atoms: _262  and  _263
REMARK  113  A    between atoms: _262  and  _265
REMARK  114  A    between atoms: _269  and  _271
REMARK  115  A    between atoms: _271  and  _272
REMARK  116  A    between atoms: _271  and  _274
REMARK  117  A    between atoms: _274  and  _275
REMARK  118  A    between atoms: _275  and  _276
REMARK  119  A    between atoms: _276  and  _277
REMARK  120  A    between atoms: _277  and  _278
REMARK  121  A    between atoms: _282  and  _284
REMARK  122  A    between atoms: _284  and  _285
REMARK  123  A    between atoms: _284  and  _287
REMARK  124  A    between atoms: _287  and  _288
REMARK  125  A    between atoms: _294  and  _296
REMARK  126  A    between atoms: _296  and  _297
REMARK  127  A    between atoms: _296  and  _299
REMARK  128  A    between atoms: _299  and  _300
REMARK  129  A    between atoms: _300  and  _301
REMARK  130  A    between atoms: _306  and  _308
REMARK  131  A    between atoms: _308  and  _309
REMARK  132  A    between atoms: _308  and  _311
REMARK  133  A    between atoms: _311  and  _312
REMARK                            x       y       z     vdW  Elec       q    Type
REMARK                         _______ _______ _______ _____ _____    ______ ____
ROOT
ATOM      1  C   GLN A   1      30.484  30.492   7.780  0.00  0.00    +0.238 C 
ATOM      2  O   GLN A   1      29.478  31.077   7.375  0.00  0.00    -0.274 OA
ATOM      3  N   HIS A   2      31.474  30.087   6.990  0.00  0.00    -0.298 N 
ATOM      4  H   HIS A   2      32.194  29.431   7.355  0.00  0.00    +0.150 HD
ENDROOT
BRANCH   1   5
ATOM      5  CA  GLN A   1      30.673  30.266   9.263  0.00  0.00    +0.145 C 
BRANCH   5   6
ATOM      6  N   GLN A   1      31.486  29.106   9.579  0.00  0.00    -0.238 NA
ATOM      7  H   GLN A   1      32.472  29.230   9.884  0.00  0.00    +0.142 HD
ENDBRANCH   5   6
BRANCH   5   8
ATOM      8  CB  GLN A   1      31.292  31.514   9.879  0.00  0.00    +0.036 C 
BRANCH   8   9
ATOM      9  CG  GLN A   1      31.214  31.509  11.393  0.00  0.00    +0.087 C 
BRANCH   9  10
ATOM     10  CD  GLN A   1      31.639  32.839  11.989  0.00  0.00    +0.219 C 
ATOM     11  NE2 GLN A   1      31.171  33.111  13.191  0.00  0.00    -0.329 N 
ATOM     12 HE21 GLN A   1      30.563  32.423  13.680  0.00  0.00    +0.145 HD
ATOM     13 HE22 GLN A   1      31.410  34.013  13.650  0.00  0.00    +0.145 HD
ATOM     14  OE1 GLN A   1      32.363  33.620  11.367  0.00  0.00    -0.275 OA
ENDBRANCH   9  10
ENDBRANCH   8   9
ENDBRANCH   5   8
ENDBRANCH   1   5
BRANCH   3  15
ATOM     15  CA  HIS A   2      31.553  30.561   5.609  0.00  0.00    +0.143 C 
BRANCH  15  16
ATOM     16  C   HIS A   2      31.691  29.530   4.503  0.00  0.00    +0.227 C 
ATOM     17  O   HIS A   2      31.633  29.918   3.320  0.00  0.00    -0.286 OA
ENDBRANCH  15  16
BRANCH  15  18
ATOM     18  CB  HIS A   2      32.665  31.610   5.478  0.00  0.00    +0.075 C 
BRANCH  18  19
ATOM     19  CG  HIS A   2      32.470  32.786   6.381  0.00  0.00    +0.082 A 
ATOM     20  CD2 HIS A   2      33.196  33.240   7.431  0.00  0.00    +0.115 A 
ATOM     21  NE2 HIS A   2      32.571  34.371   7.895  0.00  0.00    -0.221 NA
ATOM     22  CE1 HIS A   2      31.483  34.586   7.173  0.00  0.00    +0.199 A 
ATOM     23  ND1 HIS A   2      31.401  33.646   6.245  0.00  0.00    -0.227 NA
ENDBRANCH  18  19
ENDBRANCH  15  18
ENDBRANCH   3  15
TORSDOF 9
REMARK  Name = ../refined-set-2016/3djx/3djx_pocket.pdb
REMARK  133 active torsions:
REMARK  status: ('A' for Active; 'I' for Inactive)
REMARK    1  A    between atoms: _1  and  _3
REMARK    2  A    between atoms: _3  and  _4
REMARK    3  A    between atoms: _3  and  _6
REMARK    4  A    between atoms: _6  and  _7
REMARK    5  A    between atoms: _7  and  _8
REMARK    6  A    between atoms: _10  and  _12
REMARK    7  A    between atoms: _12  and  _13
REMARK    8  A    between atoms: _12  and  _15
REMARK    9  A    between atoms: _15  and  _16
REMARK   10  A    between atoms: _16  and  _17
REMARK   11  A    between atoms: _19  and  _21
REMARK   12  A    between atoms: _21  and  _22
REMARK   13  A    between atoms: _21  and  _24
REMARK   14  A    between atoms: _24  and  _25
REMARK   15  A    between atoms: _25  and  _26
REMARK   16  A    between atoms: _26  and  _27
REMARK   17  A    between atoms: _27  and  _28
REMARK   18  A    between atoms: _32  and  _34
REMARK   19  A    between atoms: _34  and  _35
REMARK   20  A    between atoms: _34  and  _37
REMARK   21  A    between atoms: _37  and  _38
REMARK   22  A    between atoms: _38  and  _39
REMARK   23  A    between atoms: _39  and  _40
REMARK   24  A    between atoms: _40  and  _41
REMARK   25  A    between atoms: _46  and  _47
REMARK   26  A    between atoms: _52  and  _54
REMARK   27  A    between atoms: _54  and  _55
REMARK   28  A    between atoms: _54  and  _57
REMARK   29  A    between atoms: _60  and  _62
REMARK   30  A    between atoms: _62  and  _63
REMARK   31  A    between atoms: _62  and  _65
REMARK   32  A    between atoms: _65  and  _66
REMARK   33  A    between atoms: _71  and  _73
REMARK   34  A    between atoms: _73  and  _74
REMARK   35  A    between atoms: _73  and  _76
REMARK   36  A    between atoms: _76  and  _77
REMARK   37  A    between atoms: _80  and  _82
REMARK   38  A    between atoms: _82  and  _83
REMARK   39  A    between atoms: _82  and  _85
REMARK   40  A    between atoms: _85  and  _86
REMARK   41  A    between atoms: _92  and  _94
REMARK   42  A    between atoms: _94  and  _95
REMARK   43  A    between atoms: _94  and  _97
REMARK   44  A    between atoms: _97  and  _98
REMARK   45  A    between atoms: _98  and  _99
REMARK   46  A    between atoms: _99  and  _100
REMARK   47  A    between atoms: _100  and  _101
REMARK   48  A    between atoms: _105  and  _107
REMARK   49  A    between atoms: _107  and  _108
REMARK   50  A    between atoms: _107  and  _110
REMARK   51  A    between atoms: _110  and  _111
REMARK   52  A    between atoms: _116  and  _118
REMARK   53  A    between atoms: _118  and  _119
REMARK   54  A    between atoms: _118  and  _121
REMARK   55  A    between atoms: _121  and  _122
REMARK   56  A    between atoms: _125  and  _127
REMARK   57  A    between atoms: _127  and  _128
REMARK   58  A    between atoms: _127  and  _130
REMARK   59  A    between atoms: _130  and  _131
REMARK   60  A    between atoms: _134  and  _136
REMARK   61  A    between atoms: _136  and  _137
REMARK   62  A    between atoms: _136  and  _139
REMARK   63  A    between atoms: _139  and  _140
REMARK   64  A    between atoms: _143  and  _145
REMARK   65  A    between atoms: _145  and  _146
REMARK   66  A    between atoms: _145  and  _148
REMARK   67  A    between atoms: _150  and  _152
REMARK   68  A    between atoms: _152  and  _153
REMARK   69  A    between atoms: _152  and  _155
REMARK   70  A    between atoms: _155  and  _156
REMARK   71  A    between atoms: _156  and  _157
REMARK   72  A    between atoms: _157  and  _158
REMARK   73  A    between atoms: _167  and  _169
REMARK   74  A    between atoms: _169  and  _170
REMARK   75  A    between atoms: _169  and  _172
REMARK   76  A    between atoms: _172  and  _173
REMARK   77  A    between atoms: _173  and  _174
REMARK   78  A    between atoms: _174  and  _175
REMARK   79  A    between atoms: _175  and  _176
REMARK   80  A    between atoms: _180  and  _182
REMARK   81  A    between atoms: _182  and  _183
REMARK   82  A    between atoms: _182  and  _185
REMARK   83  A    between atoms: _185  and  _186
REMARK   84  A    between atoms: _191  and  _193
REMARK   85  A    between atoms: _193  and  _194
REMARK   86  A    between atoms: _193  and  _196
REMARK   87  A    between atoms: _196  and  _197
REMARK   88  A    between atoms: _200  and  _202
REMARK   89  A    between atoms: _202  and  _203
REMARK   90  A    between atoms: _206  and  _208
REMARK   91  A    between atoms: _208  and  _209
REMARK   92  A    between atoms: _208  and  _211
REMARK   93  A    between atoms: _214  and  _216
REMARK   94  A    between atoms: _216  and  _217
REMARK   95  A    between atoms: _216  and  _219
REMARK   96  A    between atoms: _219  and  _220
REMARK   97  A    between atoms: _225  and  _227
REMARK   98  A    between atoms: _227  and  _228
REMARK   99  A    between atoms: _227  and  _230
REMARK  100  A    between atoms: _230  and  _231
REMARK  101  A    between atoms: _237  and  _239
REMARK  102  A    between atoms: _239  and  _240
REMARK  103  A    between atoms: _239  and  _242
REMARK  104  A    between atoms: _242  and  _243
REMARK  105  A    between atoms: _246  and  _248
REMARK  106  A    between atoms: _248  and  _249
REMARK  107  A    between atoms: _252  and  _254
REMARK  108  A    between atoms: _254  and  _255
REMARK  109  A    between atoms: _254  and  _257
REMARK  110  A    between atoms: _257  and  _258
REMARK  111  A    between atoms: _260  and  _262
REMARK  112  A    between atoms: _262  and  _263
REMARK  113  A    between atoms: _262  and  _265
REMARK  114  A    between atoms: _269  and  _271
REMARK  115  A    between atoms: _271  and  _272
REMARK  116  A    between atoms: _271  and  _274
REMARK  117  A    between atoms: _274  and  _275
REMARK  118  A    between atoms: _275  and  _276
REMARK  119  A    between atoms: _276  and  _277
REMARK  120  A    between atoms: _277  and  _278
REMARK  121  A    between atoms: _282  and  _284
REMARK  122  A    between atoms: _284  and  _285
REMARK  123  A    between atoms: _284  and  _287
REMARK  124  A    between atoms: _287  and  _288
REMARK  125  A    between atoms: _294  and  _296
REMARK  126  A    between atoms: _296  and  _297
REMARK  127  A    between atoms: _296  and  _299
REMARK  128  A    between atoms: _299  and  _300
REMARK  129  A    between atoms: _300  and  _301
REMARK  130  A    between atoms: _306  and  _308
REMARK  131  A    between atoms: _308  and  _309
REMARK  132  A    between atoms: _308  and  _311
REMARK  133  A    between atoms: _311  and  _312
REMARK                            x       y       z     vdW  Elec       q    Type
REMARK                         _______ _______ _______ _____ _____    ______ ____
ROOT
ATOM      1  O   HOH     1      27.067  40.379  10.127  0.00  0.00    +0.000 OA
ENDROOT
TORSDOF 0
REMARK  Name = ../refined-set-2016/3djx/3djx_pocket.pdb
REMARK  133 active torsions:
REMARK  status: ('A' for Active; 'I' for Inactive)
REMARK    1  A    between atoms: _1  and  _3
REMARK    2  A    between atoms: _3  and  _4
REMARK    3  A    between atoms: _3  and  _6
REMARK    4  A    between atoms: _6  and  _7
REMARK    5  A    between atoms: _7  and  _8
REMARK    6  A    between atoms: _10  and  _12
REMARK    7  A    between atoms: _12  and  _13
REMARK    8  A    between atoms: _12  and  _15
REMARK    9  A    between atoms: _15  and  _16
REMARK   10  A    between atoms: _16  and  _17
REMARK   11  A    between atoms: _19  and  _21
REMARK   12  A    between atoms: _21  and  _22
REMARK   13  A    between atoms: _21  and  _24
REMARK   14  A    between atoms: _24  and  _25
REMARK   15  A    between atoms: _25  and  _26
REMARK   16  A    between atoms: _26  and  _27
REMARK   17  A    between atoms: _27  and  _28
REMARK   18  A    between atoms: _32  and  _34
REMARK   19  A    between atoms: _34  and  _35
REMARK   20  A    between atoms: _34  and  _37
REMARK   21  A    between atoms: _37  and  _38
REMARK   22  A    between atoms: _38  and  _39
REMARK   23  A    between atoms: _39  and  _40
REMARK   24  A    between atoms: _40  and  _41
REMARK   25  A    between atoms: _46  and  _47
REMARK   26  A    between atoms: _52  and  _54
REMARK   27  A    between atoms: _54  and  _55
REMARK   28  A    between atoms: _54  and  _57
REMARK   29  A    between atoms: _60  and  _62
REMARK   30  A    between atoms: _62  and  _63
REMARK   31  A    between atoms: _62  and  _65
REMARK   32  A    between atoms: _65  and  _66
REMARK   33  A    between atoms: _71  and  _73
REMARK   34  A    between atoms: _73  and  _74
REMARK   35  A    between atoms: _73  and  _76
REMARK   36  A    between atoms: _76  and  _77
REMARK   37  A    between atoms: _80  and  _82
REMARK   38  A    between atoms: _82  and  _83
REMARK   39  A    between atoms: _82  and  _85
REMARK   40  A    between atoms: _85  and  _86
REMARK   41  A    between atoms: _92  and  _94
REMARK   42  A    between atoms: _94  and  _95
REMARK   43  A    between atoms: _94  and  _97
REMARK   44  A    between atoms: _97  and  _98
REMARK   45  A    between atoms: _98  and  _99
REMARK   46  A    between atoms: _99  and  _100
REMARK   47  A    between atoms: _100  and  _101
REMARK   48  A    between atoms: _105  and  _107
REMARK   49  A    between atoms: _107  and  _108
REMARK   50  A    between atoms: _107  and  _110
REMARK   51  A    between atoms: _110  and  _111
REMARK   52  A    between atoms: _116  and  _118
REMARK   53  A    between atoms: _118  and  _119
REMARK   54  A    between atoms: _118  and  _121
REMARK   55  A    between atoms: _121  and  _122
REMARK   56  A    between atoms: _125  and  _127
REMARK   57  A    between atoms: _127  and  _128
REMARK   58  A    between atoms: _127  and  _130
REMARK   59  A    between atoms: _130  and  _131
REMARK   60  A    between atoms: _134  and  _136
REMARK   61  A    between atoms: _136  and  _137
REMARK   62  A    between atoms: _136  and  _139
REMARK   63  A    between atoms: _139  and  _140
REMARK   64  A    between atoms: _143  and  _145
REMARK   65  A    between atoms: _145  and  _146
REMARK   66  A    between atoms: _145  and  _148
REMARK   67  A    between atoms: _150  and  _152
REMARK   68  A    between atoms: _152  and  _153
REMARK   69  A    between atoms: _152  and  _155
REMARK   70  A    between atoms: _155  and  _156
REMARK   71  A    between atoms: _156  and  _157
REMARK   72  A    between atoms: _157  and  _158
REMARK   73  A    between atoms: _167  and  _169
REMARK   74  A    between atoms: _169  and  _170
REMARK   75  A    between atoms: _169  and  _172
REMARK   76  A    between atoms: _172  and  _173
REMARK   77  A    between atoms: _173  and  _174
REMARK   78  A    between atoms: _174  and  _175
REMARK   79  A    between atoms: _175  and  _176
REMARK   80  A    between atoms: _180  and  _182
REMARK   81  A    between atoms: _182  and  _183
REMARK   82  A    between atoms: _182  and  _185
REMARK   83  A    between atoms: _185  and  _186
REMARK   84  A    between atoms: _191  and  _193
REMARK   85  A    between atoms: _193  and  _194
REMARK   86  A    between atoms: _193  and  _196
REMARK   87  A    between atoms: _196  and  _197
REMARK   88  A    between atoms: _200  and  _202
REMARK   89  A    between atoms: _202  and  _203
REMARK   90  A    between atoms: _206  and  _208
REMARK   91  A    between atoms: _208  and  _209
REMARK   92  A    between atoms: _208  and  _211
REMARK   93  A    between atoms: _214  and  _216
REMARK   94  A    between atoms: _216  and  _217
REMARK   95  A    between atoms: _216  and  _219
REMARK   96  A    between atoms: _219  and  _220
REMARK   97  A    between atoms: _225  and  _227
REMARK   98  A    between atoms: _227  and  _228
REMARK   99  A    between atoms: _227  and  _230
REMARK  100  A    between atoms: _230  and  _231
REMARK  101  A    between atoms: _237  and  _239
REMARK  102  A    between atoms: _239  and  _240
REMARK  103  A    between atoms: _239  and  _242
REMARK  104  A    between atoms: _242  and  _243
REMARK  105  A    between atoms: _246  and  _248
REMARK  106  A    between atoms: _248  and  _249
REMARK  107  A    between atoms: _252  and  _254
REMARK  108  A    between atoms: _254  and  _255
REMARK  109  A    between atoms: _254  and  _257
REMARK  110  A    between atoms: _257  and  _258
REMARK  111  A    between atoms: _260  and  _262
REMARK  112  A    between atoms: _262  and  _263
REMARK  113  A    between atoms: _262  and  _265
REMARK  114  A    between atoms: _269  and  _271
REMARK  115  A    between atoms: _271  and  _272
REMARK  116  A    between atoms: _271  and  _274
REMARK  117  A    between atoms: _274  and  _275
REMARK  118  A    between atoms: _275  and  _276
REMARK  119  A    between atoms: _276  and  _277
REMARK  120  A    between atoms: _277  and  _278
REMARK  121  A    between atoms: _282  and  _284
REMARK  122  A    between atoms: _284  and  _285
REMARK  123  A    between atoms: _284  and  _287
REMARK  124  A    between atoms: _287  and  _288
REMARK  125  A    between atoms: _294  and  _296
REMARK  126  A    between atoms: _296  and  _297
REMARK  127  A    between atoms: _296  and  _299
REMARK  128  A    between atoms: _299  and  _300
REMARK  129  A    between atoms: _300  and  _301
REMARK  130  A    between atoms: _306  and  _308
REMARK  131  A    between atoms: _308  and  _309
REMARK  132  A    between atoms: _308  and  _311
REMARK  133  A    between atoms: _311  and  _312
REMARK                            x       y       z     vdW  Elec       q    Type
REMARK                         _______ _______ _______ _____ _____    ______ ____
ROOT
ATOM      1  O   HOH     1      37.379  43.997   8.218  0.00  0.00    +0.000 OA
ENDROOT
TORSDOF 0
REMARK  Name = ../refined-set-2016/3djx/3djx_pocket.pdb
REMARK  133 active torsions:
REMARK  status: ('A' for Active; 'I' for Inactive)
REMARK    1  A    between atoms: _1  and  _3
REMARK    2  A    between atoms: _3  and  _4
REMARK    3  A    between atoms: _3  and  _6
REMARK    4  A    between atoms: _6  and  _7
REMARK    5  A    between atoms: _7  and  _8
REMARK    6  A    between atoms: _10  and  _12
REMARK    7  A    between atoms: _12  and  _13
REMARK    8  A    between atoms: _12  and  _15
REMARK    9  A    between atoms: _15  and  _16
REMARK   10  A    between atoms: _16  and  _17
REMARK   11  A    between atoms: _19  and  _21
REMARK   12  A    between atoms: _21  and  _22
REMARK   13  A    between atoms: _21  and  _24
REMARK   14  A    between atoms: _24  and  _25
REMARK   15  A    between atoms: _25  and  _26
REMARK   16  A    between atoms: _26  and  _27
REMARK   17  A    between atoms: _27  and  _28
REMARK   18  A    between atoms: _32  and  _34
REMARK   19  A    between atoms: _34  and  _35
REMARK   20  A    between atoms: _34  and  _37
REMARK   21  A    between atoms: _37  and  _38
REMARK   22  A    between atoms: _38  and  _39
REMARK   23  A    between atoms: _39  and  _40
REMARK   24  A    between atoms: _40  and  _41
REMARK   25  A    between atoms: _46  and  _47
REMARK   26  A    between atoms: _52  and  _54
REMARK   27  A    between atoms: _54  and  _55
REMARK   28  A    between atoms: _54  and  _57
REMARK   29  A    between atoms: _60  and  _62
REMARK   30  A    between atoms: _62  and  _63
REMARK   31  A    between atoms: _62  and  _65
REMARK   32  A    between atoms: _65  and  _66
REMARK   33  A    between atoms: _71  and  _73
REMARK   34  A    between atoms: _73  and  _74
REMARK   35  A    between atoms: _73  and  _76
REMARK   36  A    between atoms: _76  and  _77
REMARK   37  A    between atoms: _80  and  _82
REMARK   38  A    between atoms: _82  and  _83
REMARK   39  A    between atoms: _82  and  _85
REMARK   40  A    between atoms: _85  and  _86
REMARK   41  A    between atoms: _92  and  _94
REMARK   42  A    between atoms: _94  and  _95
REMARK   43  A    between atoms: _94  and  _97
REMARK   44  A    between atoms: _97  and  _98
REMARK   45  A    between atoms: _98  and  _99
REMARK   46  A    between atoms: _99  and  _100
REMARK   47  A    between atoms: _100  and  _101
REMARK   48  A    between atoms: _105  and  _107
REMARK   49  A    between atoms: _107  and  _108
REMARK   50  A    between atoms: _107  and  _110
REMARK   51  A    between atoms: _110  and  _111
REMARK   52  A    between atoms: _116  and  _118
REMARK   53  A    between atoms: _118  and  _119
REMARK   54  A    between atoms: _118  and  _121
REMARK   55  A    between atoms: _121  and  _122
REMARK   56  A    between atoms: _125  and  _127
REMARK   57  A    between atoms: _127  and  _128
REMARK   58  A    between atoms: _127  and  _130
REMARK   59  A    between atoms: _130  and  _131
REMARK   60  A    between atoms: _134  and  _136
REMARK   61  A    between atoms: _136  and  _137
REMARK   62  A    between atoms: _136  and  _139
REMARK   63  A    between atoms: _139  and  _140
REMARK   64  A    between atoms: _143  and  _145
REMARK   65  A    between atoms: _145  and  _146
REMARK   66  A    between atoms: _145  and  _148
REMARK   67  A    between atoms: _150  and  _152
REMARK   68  A    between atoms: _152  and  _153
REMARK   69  A    between atoms: _152  and  _155
REMARK   70  A    between atoms: _155  and  _156
REMARK   71  A    between atoms: _156  and  _157
REMARK   72  A    between atoms: _157  and  _158
REMARK   73  A    between atoms: _167  and  _169
REMARK   74  A    between atoms: _169  and  _170
REMARK   75  A    between atoms: _169  and  _172
REMARK   76  A    between atoms: _172  and  _173
REMARK   77  A    between atoms: _173  and  _174
REMARK   78  A    between atoms: _174  and  _175
REMARK   79  A    between atoms: _175  and  _176
REMARK   80  A    between atoms: _180  and  _182
REMARK   81  A    between atoms: _182  and  _183
REMARK   82  A    between atoms: _182  and  _185
REMARK   83  A    between atoms: _185  and  _186
REMARK   84  A    between atoms: _191  and  _193
REMARK   85  A    between atoms: _193  and  _194
REMARK   86  A    between atoms: _193  and  _196
REMARK   87  A    between atoms: _196  and  _197
REMARK   88  A    between atoms: _200  and  _202
REMARK   89  A    between atoms: _202  and  _203
REMARK   90  A    between atoms: _206  and  _208
REMARK   91  A    between atoms: _208  and  _209
REMARK   92  A    between atoms: _208  and  _211
REMARK   93  A    between atoms: _214  and  _216
REMARK   94  A    between atoms: _216  and  _217
REMARK   95  A    between atoms: _216  and  _219
REMARK   96  A    between atoms: _219  and  _220
REMARK   97  A    between atoms: _225  and  _227
REMARK   98  A    between atoms: _227  and  _228
REMARK   99  A    between atoms: _227  and  _230
REMARK  100  A    between atoms: _230  and  _231
REMARK  101  A    between atoms: _237  and  _239
REMARK  102  A    between atoms: _239  and  _240
REMARK  103  A    between atoms: _239  and  _242
REMARK  104  A    between atoms: _242  and  _243
REMARK  105  A    between atoms: _246  and  _248
REMARK  106  A    between atoms: _248  and  _249
REMARK  107  A    between atoms: _252  and  _254
REMARK  108  A    between atoms: _254  and  _255
REMARK  109  A    between atoms: _254  and  _257
REMARK  110  A    between atoms: _257  and  _258
REMARK  111  A    between atoms: _260  and  _262
REMARK  112  A    between atoms: _262  and  _263
REMARK  113  A    between atoms: _262  and  _265
REMARK  114  A    between atoms: _269  and  _271
REMARK  115  A    between atoms: _271  and  _272
REMARK  116  A    between atoms: _271  and  _274
REMARK  117  A    between atoms: _274  and  _275
REMARK  118  A    between atoms: _275  and  _276
REMARK  119  A    between atoms: _276  and  _277
REMARK  120  A    between atoms: _277  and  _278
REMARK  121  A    between atoms: _282  and  _284
REMARK  122  A    between atoms: _284  and  _285
REMARK  123  A    between atoms: _284  and  _287
REMARK  124  A    between atoms: _287  and  _288
REMARK  125  A    between atoms: _294  and  _296
REMARK  126  A    between atoms: _296  and  _297
REMARK  127  A    between atoms: _296  and  _299
REMARK  128  A    between atoms: _299  and  _300
REMARK  129  A    between atoms: _300  and  _301
REMARK  130  A    between atoms: _306  and  _308
REMARK  131  A    between atoms: _308  and  _309
REMARK  132  A    between atoms: _308  and  _311
REMARK  133  A    between atoms: _311  and  _312
REMARK                            x       y       z     vdW  Elec       q    Type
REMARK                         _______ _______ _______ _____ _____    ______ ____
ROOT
ATOM      1  O   HOH     1      30.215  42.715   1.362  0.00  0.00    +0.000 OA
ENDROOT
TORSDOF 0
REMARK  Name = ../refined-set-2016/3djx/3djx_pocket.pdb
REMARK  133 active torsions:
REMARK  status: ('A' for Active; 'I' for Inactive)
REMARK    1  A    between atoms: _1  and  _3
REMARK    2  A    between atoms: _3  and  _4
REMARK    3  A    between atoms: _3  and  _6
REMARK    4  A    between atoms: _6  and  _7
REMARK    5  A    between atoms: _7  and  _8
REMARK    6  A    between atoms: _10  and  _12
REMARK    7  A    between atoms: _12  and  _13
REMARK    8  A    between atoms: _12  and  _15
REMARK    9  A    between atoms: _15  and  _16
REMARK   10  A    between atoms: _16  and  _17
REMARK   11  A    between atoms: _19  and  _21
REMARK   12  A    between atoms: _21  and  _22
REMARK   13  A    between atoms: _21  and  _24
REMARK   14  A    between atoms: _24  and  _25
REMARK   15  A    between atoms: _25  and  _26
REMARK   16  A    between atoms: _26  and  _27
REMARK   17  A    between atoms: _27  and  _28
REMARK   18  A    between atoms: _32  and  _34
REMARK   19  A    between atoms: _34  and  _35
REMARK   20  A    between atoms: _34  and  _37
REMARK   21  A    between atoms: _37  and  _38
REMARK   22  A    between atoms: _38  and  _39
REMARK   23  A    between atoms: _39  and  _40
REMARK   24  A    between atoms: _40  and  _41
REMARK   25  A    between atoms: _46  and  _47
REMARK   26  A    between atoms: _52  and  _54
REMARK   27  A    between atoms: _54  and  _55
REMARK   28  A    between atoms: _54  and  _57
REMARK   29  A    between atoms: _60  and  _62
REMARK   30  A    between atoms: _62  and  _63
REMARK   31  A    between atoms: _62  and  _65
REMARK   32  A    between atoms: _65  and  _66
REMARK   33  A    between atoms: _71  and  _73
REMARK   34  A    between atoms: _73  and  _74
REMARK   35  A    between atoms: _73  and  _76
REMARK   36  A    between atoms: _76  and  _77
REMARK   37  A    between atoms: _80  and  _82
REMARK   38  A    between atoms: _82  and  _83
REMARK   39  A    between atoms: _82  and  _85
REMARK   40  A    between atoms: _85  and  _86
REMARK   41  A    between atoms: _92  and  _94
REMARK   42  A    between atoms: _94  and  _95
REMARK   43  A    between atoms: _94  and  _97
REMARK   44  A    between atoms: _97  and  _98
REMARK   45  A    between atoms: _98  and  _99
REMARK   46  A    between atoms: _99  and  _100
REMARK   47  A    between atoms: _100  and  _101
REMARK   48  A    between atoms: _105  and  _107
REMARK   49  A    between atoms: _107  and  _108
REMARK   50  A    between atoms: _107  and  _110
REMARK   51  A    between atoms: _110  and  _111
REMARK   52  A    between atoms: _116  and  _118
REMARK   53  A    between atoms: _118  and  _119
REMARK   54  A    between atoms: _118  and  _121
REMARK   55  A    between atoms: _121  and  _122
REMARK   56  A    between atoms: _125  and  _127
REMARK   57  A    between atoms: _127  and  _128
REMARK   58  A    between atoms: _127  and  _130
REMARK   59  A    between atoms: _130  and  _131
REMARK   60  A    between atoms: _134  and  _136
REMARK   61  A    between atoms: _136  and  _137
REMARK   62  A    between atoms: _136  and  _139
REMARK   63  A    between atoms: _139  and  _140
REMARK   64  A    between atoms: _143  and  _145
REMARK   65  A    between atoms: _145  and  _146
REMARK   66  A    between atoms: _145  and  _148
REMARK   67  A    between atoms: _150  and  _152
REMARK   68  A    between atoms: _152  and  _153
REMARK   69  A    between atoms: _152  and  _155
REMARK   70  A    between atoms: _155  and  _156
REMARK   71  A    between atoms: _156  and  _157
REMARK   72  A    between atoms: _157  and  _158
REMARK   73  A    between atoms: _167  and  _169
REMARK   74  A    between atoms: _169  and  _170
REMARK   75  A    between atoms: _169  and  _172
REMARK   76  A    between atoms: _172  and  _173
REMARK   77  A    between atoms: _173  and  _174
REMARK   78  A    between atoms: _174  and  _175
REMARK   79  A    between atoms: _175  and  _176
REMARK   80  A    between atoms: _180  and  _182
REMARK   81  A    between atoms: _182  and  _183
REMARK   82  A    between atoms: _182  and  _185
REMARK   83  A    between atoms: _185  and  _186
REMARK   84  A    between atoms: _191  and  _193
REMARK   85  A    between atoms: _193  and  _194
REMARK   86  A    between atoms: _193  and  _196
REMARK   87  A    between atoms: _196  and  _197
REMARK   88  A    between atoms: _200  and  _202
REMARK   89  A    between atoms: _202  and  _203
REMARK   90  A    between atoms: _206  and  _208
REMARK   91  A    between atoms: _208  and  _209
REMARK   92  A    between atoms: _208  and  _211
REMARK   93  A    between atoms: _214  and  _216
REMARK   94  A    between atoms: _216  and  _217
REMARK   95  A    between atoms: _216  and  _219
REMARK   96  A    between atoms: _219  and  _220
REMARK   97  A    between atoms: _225  and  _227
REMARK   98  A    between atoms: _227  and  _228
REMARK   99  A    between atoms: _227  and  _230
REMARK  100  A    between atoms: _230  and  _231
REMARK  101  A    between atoms: _237  and  _239
REMARK  102  A    between atoms: _239  and  _240
REMARK  103  A    between atoms: _239  and  _242
REMARK  104  A    between atoms: _242  and  _243
REMARK  105  A    between atoms: _246  and  _248
REMARK  106  A    between atoms: _248  and  _249
REMARK  107  A    between atoms: _252  and  _254
REMARK  108  A    between atoms: _254  and  _255
REMARK  109  A    between atoms: _254  and  _257
REMARK  110  A    between atoms: _257  and  _258
REMARK  111  A    between atoms: _260  and  _262
REMARK  112  A    between atoms: _262  and  _263
REMARK  113  A    between atoms: _262  and  _265
REMARK  114  A    between atoms: _269  and  _271
REMARK  115  A    between atoms: _271  and  _272
REMARK  116  A    between atoms: _271  and  _274
REMARK  117  A    between atoms: _274  and  _275
REMARK  118  A    between atoms: _275  and  _276
REMARK  119  A    between atoms: _276  and  _277
REMARK  120  A    between atoms: _277  and  _278
REMARK  121  A    between atoms: _282  and  _284
REMARK  122  A    between atoms: _284  and  _285
REMARK  123  A    between atoms: _284  and  _287
REMARK  124  A    between atoms: _287  and  _288
REMARK  125  A    between atoms: _294  and  _296
REMARK  126  A    between atoms: _296  and  _297
REMARK  127  A    between atoms: _296  and  _299
REMARK  128  A    between atoms: _299  and  _300
REMARK  129  A    between atoms: _300  and  _301
REMARK  130  A    between atoms: _306  and  _308
REMARK  131  A    between atoms: _308  and  _309
REMARK  132  A    between atoms: _308  and  _311
REMARK  133  A    between atoms: _311  and  _312
REMARK                            x       y       z     vdW  Elec       q    Type
REMARK                         _______ _______ _______ _____ _____    ______ ____
ROOT
ATOM      1  O   HOH     1      28.284  40.270  12.572  0.00  0.00    +0.000 OA
ENDROOT
TORSDOF 0
REMARK  Name = ../refined-set-2016/3djx/3djx_pocket.pdb
REMARK  133 active torsions:
REMARK  status: ('A' for Active; 'I' for Inactive)
REMARK    1  A    between atoms: _1  and  _3
REMARK    2  A    between atoms: _3  and  _4
REMARK    3  A    between atoms: _3  and  _6
REMARK    4  A    between atoms: _6  and  _7
REMARK    5  A    between atoms: _7  and  _8
REMARK    6  A    between atoms: _10  and  _12
REMARK    7  A    between atoms: _12  and  _13
REMARK    8  A    between atoms: _12  and  _15
REMARK    9  A    between atoms: _15  and  _16
REMARK   10  A    between atoms: _16  and  _17
REMARK   11  A    between atoms: _19  and  _21
REMARK   12  A    between atoms: _21  and  _22
REMARK   13  A    between atoms: _21  and  _24
REMARK   14  A    between atoms: _24  and  _25
REMARK   15  A    between atoms: _25  and  _26
REMARK   16  A    between atoms: _26  and  _27
REMARK   17  A    between atoms: _27  and  _28
REMARK   18  A    between atoms: _32  and  _34
REMARK   19  A    between atoms: _34  and  _35
REMARK   20  A    between atoms: _34  and  _37
REMARK   21  A    between atoms: _37  and  _38
REMARK   22  A    between atoms: _38  and  _39
REMARK   23  A    between atoms: _39  and  _40
REMARK   24  A    between atoms: _40  and  _41
REMARK   25  A    between atoms: _46  and  _47
REMARK   26  A    between atoms: _52  and  _54
REMARK   27  A    between atoms: _54  and  _55
REMARK   28  A    between atoms: _54  and  _57
REMARK   29  A    between atoms: _60  and  _62
REMARK   30  A    between atoms: _62  and  _63
REMARK   31  A    between atoms: _62  and  _65
REMARK   32  A    between atoms: _65  and  _66
REMARK   33  A    between atoms: _71  and  _73
REMARK   34  A    between atoms: _73  and  _74
REMARK   35  A    between atoms: _73  and  _76
REMARK   36  A    between atoms: _76  and  _77
REMARK   37  A    between atoms: _80  and  _82
REMARK   38  A    between atoms: _82  and  _83
REMARK   39  A    between atoms: _82  and  _85
REMARK   40  A    between atoms: _85  and  _86
REMARK   41  A    between atoms: _92  and  _94
REMARK   42  A    between atoms: _94  and  _95
REMARK   43  A    between atoms: _94  and  _97
REMARK   44  A    between atoms: _97  and  _98
REMARK   45  A    between atoms: _98  and  _99
REMARK   46  A    between atoms: _99  and  _100
REMARK   47  A    between atoms: _100  and  _101
REMARK   48  A    between atoms: _105  and  _107
REMARK   49  A    between atoms: _107  and  _108
REMARK   50  A    between atoms: _107  and  _110
REMARK   51  A    between atoms: _110  and  _111
REMARK   52  A    between atoms: _116  and  _118
REMARK   53  A    between atoms: _118  and  _119
REMARK   54  A    between atoms: _118  and  _121
REMARK   55  A    between atoms: _121  and  _122
REMARK   56  A    between atoms: _125  and  _127
REMARK   57  A    between atoms: _127  and  _128
REMARK   58  A    between atoms: _127  and  _130
REMARK   59  A    between atoms: _130  and  _131
REMARK   60  A    between atoms: _134  and  _136
REMARK   61  A    between atoms: _136  and  _137
REMARK   62  A    between atoms: _136  and  _139
REMARK   63  A    between atoms: _139  and  _140
REMARK   64  A    between atoms: _143  and  _145
REMARK   65  A    between atoms: _145  and  _146
REMARK   66  A    between atoms: _145  and  _148
REMARK   67  A    between atoms: _150  and  _152
REMARK   68  A    between atoms: _152  and  _153
REMARK   69  A    between atoms: _152  and  _155
REMARK   70  A    between atoms: _155  and  _156
REMARK   71  A    between atoms: _156  and  _157
REMARK   72  A    between atoms: _157  and  _158
REMARK   73  A    between atoms: _167  and  _169
REMARK   74  A    between atoms: _169  and  _170
REMARK   75  A    between atoms: _169  and  _172
REMARK   76  A    between atoms: _172  and  _173
REMARK   77  A    between atoms: _173  and  _174
REMARK   78  A    between atoms: _174  and  _175
REMARK   79  A    between atoms: _175  and  _176
REMARK   80  A    between atoms: _180  and  _182
REMARK   81  A    between atoms: _182  and  _183
REMARK   82  A    between atoms: _182  and  _185
REMARK   83  A    between atoms: _185  and  _186
REMARK   84  A    between atoms: _191  and  _193
REMARK   85  A    between atoms: _193  and  _194
REMARK   86  A    between atoms: _193  and  _196
REMARK   87  A    between atoms: _196  and  _197
REMARK   88  A    between atoms: _200  and  _202
REMARK   89  A    between atoms: _202  and  _203
REMARK   90  A    between atoms: _206  and  _208
REMARK   91  A    between atoms: _208  and  _209
REMARK   92  A    between atoms: _208  and  _211
REMARK   93  A    between atoms: _214  and  _216
REMARK   94  A    between atoms: _216  and  _217
REMARK   95  A    between atoms: _216  and  _219
REMARK   96  A    between atoms: _219  and  _220
REMARK   97  A    between atoms: _225  and  _227
REMARK   98  A    between atoms: _227  and  _228
REMARK   99  A    between atoms: _227  and  _230
REMARK  100  A    between atoms: _230  and  _231
REMARK  101  A    between atoms: _237  and  _239
REMARK  102  A    between atoms: _239  and  _240
REMARK  103  A    between atoms: _239  and  _242
REMARK  104  A    between atoms: _242  and  _243
REMARK  105  A    between atoms: _246  and  _248
REMARK  106  A    between atoms: _248  and  _249
REMARK  107  A    between atoms: _252  and  _254
REMARK  108  A    between atoms: _254  and  _255
REMARK  109  A    between atoms: _254  and  _257
REMARK  110  A    between atoms: _257  and  _258
REMARK  111  A    between atoms: _260  and  _262
REMARK  112  A    between atoms: _262  and  _263
REMARK  113  A    between atoms: _262  and  _265
REMARK  114  A    between atoms: _269  and  _271
REMARK  115  A    between atoms: _271  and  _272
REMARK  116  A    between atoms: _271  and  _274
REMARK  117  A    between atoms: _274  and  _275
REMARK  118  A    between atoms: _275  and  _276
REMARK  119  A    between atoms: _276  and  _277
REMARK  120  A    between atoms: _277  and  _278
REMARK  121  A    between atoms: _282  and  _284
REMARK  122  A    between atoms: _284  and  _285
REMARK  123  A    between atoms: _284  and  _287
REMARK  124  A    between atoms: _287  and  _288
REMARK  125  A    between atoms: _294  and  _296
REMARK  126  A    between atoms: _296  and  _297
REMARK  127  A    between atoms: _296  and  _299
REMARK  128  A    between atoms: _299  and  _300
REMARK  129  A    between atoms: _300  and  _301
REMARK  130  A    between atoms: _306  and  _308
REMARK  131  A    between atoms: _308  and  _309
REMARK  132  A    between atoms: _308  and  _311
REMARK  133  A    between atoms: _311  and  _312
REMARK                            x       y       z     vdW  Elec       q    Type
REMARK                         _______ _______ _______ _____ _____    ______ ____
ROOT
ATOM      1  O   HOH     1      28.937  44.446  -3.692  0.00  0.00    +0.000 OA
ENDROOT
TORSDOF 0
REMARK  Name = ../refined-set-2016/3djx/3djx_pocket.pdb
REMARK  133 active torsions:
REMARK  status: ('A' for Active; 'I' for Inactive)
REMARK    1  A    between atoms: _1  and  _3
REMARK    2  A    between atoms: _3  and  _4
REMARK    3  A    between atoms: _3  and  _6
REMARK    4  A    between atoms: _6  and  _7
REMARK    5  A    between atoms: _7  and  _8
REMARK    6  A    between atoms: _10  and  _12
REMARK    7  A    between atoms: _12  and  _13
REMARK    8  A    between atoms: _12  and  _15
REMARK    9  A    between atoms: _15  and  _16
REMARK   10  A    between atoms: _16  and  _17
REMARK   11  A    between atoms: _19  and  _21
REMARK   12  A    between atoms: _21  and  _22
REMARK   13  A    between atoms: _21  and  _24
REMARK   14  A    between atoms: _24  and  _25
REMARK   15  A    between atoms: _25  and  _26
REMARK   16  A    between atoms: _26  and  _27
REMARK   17  A    between atoms: _27  and  _28
REMARK   18  A    between atoms: _32  and  _34
REMARK   19  A    between atoms: _34  and  _35
REMARK   20  A    between atoms: _34  and  _37
REMARK   21  A    between atoms: _37  and  _38
REMARK   22  A    between atoms: _38  and  _39
REMARK   23  A    between atoms: _39  and  _40
REMARK   24  A    between atoms: _40  and  _41
REMARK   25  A    between atoms: _46  and  _47
REMARK   26  A    between atoms: _52  and  _54
REMARK   27  A    between atoms: _54  and  _55
REMARK   28  A    between atoms: _54  and  _57
REMARK   29  A    between atoms: _60  and  _62
REMARK   30  A    between atoms: _62  and  _63
REMARK   31  A    between atoms: _62  and  _65
REMARK   32  A    between atoms: _65  and  _66
REMARK   33  A    between atoms: _71  and  _73
REMARK   34  A    between atoms: _73  and  _74
REMARK   35  A    between atoms: _73  and  _76
REMARK   36  A    between atoms: _76  and  _77
REMARK   37  A    between atoms: _80  and  _82
REMARK   38  A    between atoms: _82  and  _83
REMARK   39  A    between atoms: _82  and  _85
REMARK   40  A    between atoms: _85  and  _86
REMARK   41  A    between atoms: _92  and  _94
REMARK   42  A    between atoms: _94  and  _95
REMARK   43  A    between atoms: _94  and  _97
REMARK   44  A    between atoms: _97  and  _98
REMARK   45  A    between atoms: _98  and  _99
REMARK   46  A    between atoms: _99  and  _100
REMARK   47  A    between atoms: _100  and  _101
REMARK   48  A    between atoms: _105  and  _107
REMARK   49  A    between atoms: _107  and  _108
REMARK   50  A    between atoms: _107  and  _110
REMARK   51  A    between atoms: _110  and  _111
REMARK   52  A    between atoms: _116  and  _118
REMARK   53  A    between atoms: _118  and  _119
REMARK   54  A    between atoms: _118  and  _121
REMARK   55  A    between atoms: _121  and  _122
REMARK   56  A    between atoms: _125  and  _127
REMARK   57  A    between atoms: _127  and  _128
REMARK   58  A    between atoms: _127  and  _130
REMARK   59  A    between atoms: _130  and  _131
REMARK   60  A    between atoms: _134  and  _136
REMARK   61  A    between atoms: _136  and  _137
REMARK   62  A    between atoms: _136  and  _139
REMARK   63  A    between atoms: _139  and  _140
REMARK   64  A    between atoms: _143  and  _145
REMARK   65  A    between atoms: _145  and  _146
REMARK   66  A    between atoms: _145  and  _148
REMARK   67  A    between atoms: _150  and  _152
REMARK   68  A    between atoms: _152  and  _153
REMARK   69  A    between atoms: _152  and  _155
REMARK   70  A    between atoms: _155  and  _156
REMARK   71  A    between atoms: _156  and  _157
REMARK   72  A    between atoms: _157  and  _158
REMARK   73  A    between atoms: _167  and  _169
REMARK   74  A    between atoms: _169  and  _170
REMARK   75  A    between atoms: _169  and  _172
REMARK   76  A    between atoms: _172  and  _173
REMARK   77  A    between atoms: _173  and  _174
REMARK   78  A    between atoms: _174  and  _175
REMARK   79  A    between atoms: _175  and  _176
REMARK   80  A    between atoms: _180  and  _182
REMARK   81  A    between atoms: _182  and  _183
REMARK   82  A    between atoms: _182  and  _185
REMARK   83  A    between atoms: _185  and  _186
REMARK   84  A    between atoms: _191  and  _193
REMARK   85  A    between atoms: _193  and  _194
REMARK   86  A    between atoms: _193  and  _196
REMARK   87  A    between atoms: _196  and  _197
REMARK   88  A    between atoms: _200  and  _202
REMARK   89  A    between atoms: _202  and  _203
REMARK   90  A    between atoms: _206  and  _208
REMARK   91  A    between atoms: _208  and  _209
REMARK   92  A    between atoms: _208  and  _211
REMARK   93  A    between atoms: _214  and  _216
REMARK   94  A    between atoms: _216  and  _217
REMARK   95  A    between atoms: _216  and  _219
REMARK   96  A    between atoms: _219  and  _220
REMARK   97  A    between atoms: _225  and  _227
REMARK   98  A    between atoms: _227  and  _228
REMARK   99  A    between atoms: _227  and  _230
REMARK  100  A    between atoms: _230  and  _231
REMARK  101  A    between atoms: _237  and  _239
REMARK  102  A    between atoms: _239  and  _240
REMARK  103  A    between atoms: _239  and  _242
REMARK  104  A    between atoms: _242  and  _243
REMARK  105  A    between atoms: _246  and  _248
REMARK  106  A    between atoms: _248  and  _249
REMARK  107  A    between atoms: _252  and  _254
REMARK  108  A    between atoms: _254  and  _255
REMARK  109  A    between atoms: _254  and  _257
REMARK  110  A    between atoms: _257  and  _258
REMARK  111  A    between atoms: _260  and  _262
REMARK  112  A    between atoms: _262  and  _263
REMARK  113  A    between atoms: _262  and  _265
REMARK  114  A    between atoms: _269  and  _271
REMARK  115  A    between atoms: _271  and  _272
REMARK  116  A    between atoms: _271  and  _274
REMARK  117  A    between atoms: _274  and  _275
REMARK  118  A    between atoms: _275  and  _276
REMARK  119  A    between atoms: _276  and  _277
REMARK  120  A    between atoms: _277  and  _278
REMARK  121  A    between atoms: _282  and  _284
REMARK  122  A    between atoms: _284  and  _285
REMARK  123  A    between atoms: _284  and  _287
REMARK  124  A    between atoms: _287  and  _288
REMARK  125  A    between atoms: _294  and  _296
REMARK  126  A    between atoms: _296  and  _297
REMARK  127  A    between atoms: _296  and  _299
REMARK  128  A    between atoms: _299  and  _300
REMARK  129  A    between atoms: _300  and  _301
REMARK  130  A    between atoms: _306  and  _308
REMARK  131  A    between atoms: _308  and  _309
REMARK  132  A    between atoms: _308  and  _311
REMARK  133  A    between atoms: _311  and  _312
REMARK                            x       y       z     vdW  Elec       q    Type
REMARK                         _______ _______ _______ _____ _____    ______ ____
ROOT
ATOM      1  O   HOH     1      27.525  43.751   3.494  0.00  0.00    +0.000 OA
ENDROOT
TORSDOF 0
REMARK  Name = ../refined-set-2016/3djx/3djx_pocket.pdb
REMARK  133 active torsions:
REMARK  status: ('A' for Active; 'I' for Inactive)
REMARK    1  A    between atoms: _1  and  _3
REMARK    2  A    between atoms: _3  and  _4
REMARK    3  A    between atoms: _3  and  _6
REMARK    4  A    between atoms: _6  and  _7
REMARK    5  A    between atoms: _7  and  _8
REMARK    6  A    between atoms: _10  and  _12
REMARK    7  A    between atoms: _12  and  _13
REMARK    8  A    between atoms: _12  and  _15
REMARK    9  A    between atoms: _15  and  _16
REMARK   10  A    between atoms: _16  and  _17
REMARK   11  A    between atoms: _19  and  _21
REMARK   12  A    between atoms: _21  and  _22
REMARK   13  A    between atoms: _21  and  _24
REMARK   14  A    between atoms: _24  and  _25
REMARK   15  A    between atoms: _25  and  _26
REMARK   16  A    between atoms: _26  and  _27
REMARK   17  A    between atoms: _27  and  _28
REMARK   18  A    between atoms: _32  and  _34
REMARK   19  A    between atoms: _34  and  _35
REMARK   20  A    between atoms: _34  and  _37
REMARK   21  A    between atoms: _37  and  _38
REMARK   22  A    between atoms: _38  and  _39
REMARK   23  A    between atoms: _39  and  _40
REMARK   24  A    between atoms: _40  and  _41
REMARK   25  A    between atoms: _46  and  _47
REMARK   26  A    between atoms: _52  and  _54
REMARK   27  A    between atoms: _54  and  _55
REMARK   28  A    between atoms: _54  and  _57
REMARK   29  A    between atoms: _60  and  _62
REMARK   30  A    between atoms: _62  and  _63
REMARK   31  A    between atoms: _62  and  _65
REMARK   32  A    between atoms: _65  and  _66
REMARK   33  A    between atoms: _71  and  _73
REMARK   34  A    between atoms: _73  and  _74
REMARK   35  A    between atoms: _73  and  _76
REMARK   36  A    between atoms: _76  and  _77
REMARK   37  A    between atoms: _80  and  _82
REMARK   38  A    between atoms: _82  and  _83
REMARK   39  A    between atoms: _82  and  _85
REMARK   40  A    between atoms: _85  and  _86
REMARK   41  A    between atoms: _92  and  _94
REMARK   42  A    between atoms: _94  and  _95
REMARK   43  A    between atoms: _94  and  _97
REMARK   44  A    between atoms: _97  and  _98
REMARK   45  A    between atoms: _98  and  _99
REMARK   46  A    between atoms: _99  and  _100
REMARK   47  A    between atoms: _100  and  _101
REMARK   48  A    between atoms: _105  and  _107
REMARK   49  A    between atoms: _107  and  _108
REMARK   50  A    between atoms: _107  and  _110
REMARK   51  A    between atoms: _110  and  _111
REMARK   52  A    between atoms: _116  and  _118
REMARK   53  A    between atoms: _118  and  _119
REMARK   54  A    between atoms: _118  and  _121
REMARK   55  A    between atoms: _121  and  _122
REMARK   56  A    between atoms: _125  and  _127
REMARK   57  A    between atoms: _127  and  _128
REMARK   58  A    between atoms: _127  and  _130
REMARK   59  A    between atoms: _130  and  _131
REMARK   60  A    between atoms: _134  and  _136
REMARK   61  A    between atoms: _136  and  _137
REMARK   62  A    between atoms: _136  and  _139
REMARK   63  A    between atoms: _139  and  _140
REMARK   64  A    between atoms: _143  and  _145
REMARK   65  A    between atoms: _145  and  _146
REMARK   66  A    between atoms: _145  and  _148
REMARK   67  A    between atoms: _150  and  _152
REMARK   68  A    between atoms: _152  and  _153
REMARK   69  A    between atoms: _152  and  _155
REMARK   70  A    between atoms: _155  and  _156
REMARK   71  A    between atoms: _156  and  _157
REMARK   72  A    between atoms: _157  and  _158
REMARK   73  A    between atoms: _167  and  _169
REMARK   74  A    between atoms: _169  and  _170
REMARK   75  A    between atoms: _169  and  _172
REMARK   76  A    between atoms: _172  and  _173
REMARK   77  A    between atoms: _173  and  _174
REMARK   78  A    between atoms: _174  and  _175
REMARK   79  A    between atoms: _175  and  _176
REMARK   80  A    between atoms: _180  and  _182
REMARK   81  A    between atoms: _182  and  _183
REMARK   82  A    between atoms: _182  and  _185
REMARK   83  A    between atoms: _185  and  _186
REMARK   84  A    between atoms: _191  and  _193
REMARK   85  A    between atoms: _193  and  _194
REMARK   86  A    between atoms: _193  and  _196
REMARK   87  A    between atoms: _196  and  _197
REMARK   88  A    between atoms: _200  and  _202
REMARK   89  A    between atoms: _202  and  _203
REMARK   90  A    between atoms: _206  and  _208
REMARK   91  A    between atoms: _208  and  _209
REMARK   92  A    between atoms: _208  and  _211
REMARK   93  A    between atoms: _214  and  _216
REMARK   94  A    between atoms: _216  and  _217
REMARK   95  A    between atoms: _216  and  _219
REMARK   96  A    between atoms: _219  and  _220
REMARK   97  A    between atoms: _225  and  _227
REMARK   98  A    between atoms: _227  and  _228
REMARK   99  A    between atoms: _227  and  _230
REMARK  100  A    between atoms: _230  and  _231
REMARK  101  A    between atoms: _237  and  _239
REMARK  102  A    between atoms: _239  and  _240
REMARK  103  A    between atoms: _239  and  _242
REMARK  104  A    between atoms: _242  and  _243
REMARK  105  A    between atoms: _246  and  _248
REMARK  106  A    between atoms: _248  and  _249
REMARK  107  A    between atoms: _252  and  _254
REMARK  108  A    between atoms: _254  and  _255
REMARK  109  A    between atoms: _254  and  _257
REMARK  110  A    between atoms: _257  and  _258
REMARK  111  A    between atoms: _260  and  _262
REMARK  112  A    between atoms: _262  and  _263
REMARK  113  A    between atoms: _262  and  _265
REMARK  114  A    between atoms: _269  and  _271
REMARK  115  A    between atoms: _271  and  _272
REMARK  116  A    between atoms: _271  and  _274
REMARK  117  A    between atoms: _274  and  _275
REMARK  118  A    between atoms: _275  and  _276
REMARK  119  A    between atoms: _276  and  _277
REMARK  120  A    between atoms: _277  and  _278
REMARK  121  A    between atoms: _282  and  _284
REMARK  122  A    between atoms: _284  and  _285
REMARK  123  A    between atoms: _284  and  _287
REMARK  124  A    between atoms: _287  and  _288
REMARK  125  A    between atoms: _294  and  _296
REMARK  126  A    between atoms: _296  and  _297
REMARK  127  A    between atoms: _296  and  _299
REMARK  128  A    between atoms: _299  and  _300
REMARK  129  A    between atoms: _300  and  _301
REMARK  130  A    between atoms: _306  and  _308
REMARK  131  A    between atoms: _308  and  _309
REMARK  132  A    between atoms: _308  and  _311
REMARK  133  A    between atoms: _311  and  _312
REMARK                            x       y       z     vdW  Elec       q    Type
REMARK                         _______ _______ _______ _____ _____    ______ ____
ROOT
ATOM      1  O   HOH     1      27.115  43.077   9.134  0.00  0.00    +0.000 OA
ENDROOT
TORSDOF 0
REMARK  Name = ../refined-set-2016/3djx/3djx_pocket.pdb
REMARK  133 active torsions:
REMARK  status: ('A' for Active; 'I' for Inactive)
REMARK    1  A    between atoms: _1  and  _3
REMARK    2  A    between atoms: _3  and  _4
REMARK    3  A    between atoms: _3  and  _6
REMARK    4  A    between atoms: _6  and  _7
REMARK    5  A    between atoms: _7  and  _8
REMARK    6  A    between atoms: _10  and  _12
REMARK    7  A    between atoms: _12  and  _13
REMARK    8  A    between atoms: _12  and  _15
REMARK    9  A    between atoms: _15  and  _16
REMARK   10  A    between atoms: _16  and  _17
REMARK   11  A    between atoms: _19  and  _21
REMARK   12  A    between atoms: _21  and  _22
REMARK   13  A    between atoms: _21  and  _24
REMARK   14  A    between atoms: _24  and  _25
REMARK   15  A    between atoms: _25  and  _26
REMARK   16  A    between atoms: _26  and  _27
REMARK   17  A    between atoms: _27  and  _28
REMARK   18  A    between atoms: _32  and  _34
REMARK   19  A    between atoms: _34  and  _35
REMARK   20  A    between atoms: _34  and  _37
REMARK   21  A    between atoms: _37  and  _38
REMARK   22  A    between atoms: _38  and  _39
REMARK   23  A    between atoms: _39  and  _40
REMARK   24  A    between atoms: _40  and  _41
REMARK   25  A    between atoms: _46  and  _47
REMARK   26  A    between atoms: _52  and  _54
REMARK   27  A    between atoms: _54  and  _55
REMARK   28  A    between atoms: _54  and  _57
REMARK   29  A    between atoms: _60  and  _62
REMARK   30  A    between atoms: _62  and  _63
REMARK   31  A    between atoms: _62  and  _65
REMARK   32  A    between atoms: _65  and  _66
REMARK   33  A    between atoms: _71  and  _73
REMARK   34  A    between atoms: _73  and  _74
REMARK   35  A    between atoms: _73  and  _76
REMARK   36  A    between atoms: _76  and  _77
REMARK   37  A    between atoms: _80  and  _82
REMARK   38  A    between atoms: _82  and  _83
REMARK   39  A    between atoms: _82  and  _85
REMARK   40  A    between atoms: _85  and  _86
REMARK   41  A    between atoms: _92  and  _94
REMARK   42  A    between atoms: _94  and  _95
REMARK   43  A    between atoms: _94  and  _97
REMARK   44  A    between atoms: _97  and  _98
REMARK   45  A    between atoms: _98  and  _99
REMARK   46  A    between atoms: _99  and  _100
REMARK   47  A    between atoms: _100  and  _101
REMARK   48  A    between atoms: _105  and  _107
REMARK   49  A    between atoms: _107  and  _108
REMARK   50  A    between atoms: _107  and  _110
REMARK   51  A    between atoms: _110  and  _111
REMARK   52  A    between atoms: _116  and  _118
REMARK   53  A    between atoms: _118  and  _119
REMARK   54  A    between atoms: _118  and  _121
REMARK   55  A    between atoms: _121  and  _122
REMARK   56  A    between atoms: _125  and  _127
REMARK   57  A    between atoms: _127  and  _128
REMARK   58  A    between atoms: _127  and  _130
REMARK   59  A    between atoms: _130  and  _131
REMARK   60  A    between atoms: _134  and  _136
REMARK   61  A    between atoms: _136  and  _137
REMARK   62  A    between atoms: _136  and  _139
REMARK   63  A    between atoms: _139  and  _140
REMARK   64  A    between atoms: _143  and  _145
REMARK   65  A    between atoms: _145  and  _146
REMARK   66  A    between atoms: _145  and  _148
REMARK   67  A    between atoms: _150  and  _152
REMARK   68  A    between atoms: _152  and  _153
REMARK   69  A    between atoms: _152  and  _155
REMARK   70  A    between atoms: _155  and  _156
REMARK   71  A    between atoms: _156  and  _157
REMARK   72  A    between atoms: _157  and  _158
REMARK   73  A    between atoms: _167  and  _169
REMARK   74  A    between atoms: _169  and  _170
REMARK   75  A    between atoms: _169  and  _172
REMARK   76  A    between atoms: _172  and  _173
REMARK   77  A    between atoms: _173  and  _174
REMARK   78  A    between atoms: _174  and  _175
REMARK   79  A    between atoms: _175  and  _176
REMARK   80  A    between atoms: _180  and  _182
REMARK   81  A    between atoms: _182  and  _183
REMARK   82  A    between atoms: _182  and  _185
REMARK   83  A    between atoms: _185  and  _186
REMARK   84  A    between atoms: _191  and  _193
REMARK   85  A    between atoms: _193  and  _194
REMARK   86  A    between atoms: _193  and  _196
REMARK   87  A    between atoms: _196  and  _197
REMARK   88  A    between atoms: _200  and  _202
REMARK   89  A    between atoms: _202  and  _203
REMARK   90  A    between atoms: _206  and  _208
REMARK   91  A    between atoms: _208  and  _209
REMARK   92  A    between atoms: _208  and  _211
REMARK   93  A    between atoms: _214  and  _216
REMARK   94  A    between atoms: _216  and  _217
REMARK   95  A    between atoms: _216  and  _219
REMARK   96  A    between atoms: _219  and  _220
REMARK   97  A    between atoms: _225  and  _227
REMARK   98  A    between atoms: _227  and  _228
REMARK   99  A    between atoms: _227  and  _230
REMARK  100  A    between atoms: _230  and  _231
REMARK  101  A    between atoms: _237  and  _239
REMARK  102  A    between atoms: _239  and  _240
REMARK  103  A    between atoms: _239  and  _242
REMARK  104  A    between atoms: _242  and  _243
REMARK  105  A    between atoms: _246  and  _248
REMARK  106  A    between atoms: _248  and  _249
REMARK  107  A    between atoms: _252  and  _254
REMARK  108  A    between atoms: _254  and  _255
REMARK  109  A    between atoms: _254  and  _257
REMARK  110  A    between atoms: _257  and  _258
REMARK  111  A    between atoms: _260  and  _262
REMARK  112  A    between atoms: _262  and  _263
REMARK  113  A    between atoms: _262  and  _265
REMARK  114  A    between atoms: _269  and  _271
REMARK  115  A    between atoms: _271  and  _272
REMARK  116  A    between atoms: _271  and  _274
REMARK  117  A    between atoms: _274  and  _275
REMARK  118  A    between atoms: _275  and  _276
REMARK  119  A    between atoms: _276  and  _277
REMARK  120  A    between atoms: _277  and  _278
REMARK  121  A    between atoms: _282  and  _284
REMARK  122  A    between atoms: _284  and  _285
REMARK  123  A    between atoms: _284  and  _287
REMARK  124  A    between atoms: _287  and  _288
REMARK  125  A    between atoms: _294  and  _296
REMARK  126  A    between atoms: _296  and  _297
REMARK  127  A    between atoms: _296  and  _299
REMARK  128  A    between atoms: _299  and  _300
REMARK  129  A    between atoms: _300  and  _301
REMARK  130  A    between atoms: _306  and  _308
REMARK  131  A    between atoms: _308  and  _309
REMARK  132  A    between atoms: _308  and  _311
REMARK  133  A    between atoms: _311  and  _312
REMARK                            x       y       z     vdW  Elec       q    Type
REMARK                         _______ _______ _______ _____ _____    ______ ____
ROOT
ATOM      1  O   HOH     1      27.440  43.154  -0.563  0.00  0.00    +0.000 OA
ENDROOT
TORSDOF 0
REMARK  Name = ../refined-set-2016/3djx/3djx_pocket.pdb
REMARK  133 active torsions:
REMARK  status: ('A' for Active; 'I' for Inactive)
REMARK    1  A    between atoms: _1  and  _3
REMARK    2  A    between atoms: _3  and  _4
REMARK    3  A    between atoms: _3  and  _6
REMARK    4  A    between atoms: _6  and  _7
REMARK    5  A    between atoms: _7  and  _8
REMARK    6  A    between atoms: _10  and  _12
REMARK    7  A    between atoms: _12  and  _13
REMARK    8  A    between atoms: _12  and  _15
REMARK    9  A    between atoms: _15  and  _16
REMARK   10  A    between atoms: _16  and  _17
REMARK   11  A    between atoms: _19  and  _21
REMARK   12  A    between atoms: _21  and  _22
REMARK   13  A    between atoms: _21  and  _24
REMARK   14  A    between atoms: _24  and  _25
REMARK   15  A    between atoms: _25  and  _26
REMARK   16  A    between atoms: _26  and  _27
REMARK   17  A    between atoms: _27  and  _28
REMARK   18  A    between atoms: _32  and  _34
REMARK   19  A    between atoms: _34  and  _35
REMARK   20  A    between atoms: _34  and  _37
REMARK   21  A    between atoms: _37  and  _38
REMARK   22  A    between atoms: _38  and  _39
REMARK   23  A    between atoms: _39  and  _40
REMARK   24  A    between atoms: _40  and  _41
REMARK   25  A    between atoms: _46  and  _47
REMARK   26  A    between atoms: _52  and  _54
REMARK   27  A    between atoms: _54  and  _55
REMARK   28  A    between atoms: _54  and  _57
REMARK   29  A    between atoms: _60  and  _62
REMARK   30  A    between atoms: _62  and  _63
REMARK   31  A    between atoms: _62  and  _65
REMARK   32  A    between atoms: _65  and  _66
REMARK   33  A    between atoms: _71  and  _73
REMARK   34  A    between atoms: _73  and  _74
REMARK   35  A    between atoms: _73  and  _76
REMARK   36  A    between atoms: _76  and  _77
REMARK   37  A    between atoms: _80  and  _82
REMARK   38  A    between atoms: _82  and  _83
REMARK   39  A    between atoms: _82  and  _85
REMARK   40  A    between atoms: _85  and  _86
REMARK   41  A    between atoms: _92  and  _94
REMARK   42  A    between atoms: _94  and  _95
REMARK   43  A    between atoms: _94  and  _97
REMARK   44  A    between atoms: _97  and  _98
REMARK   45  A    between atoms: _98  and  _99
REMARK   46  A    between atoms: _99  and  _100
REMARK   47  A    between atoms: _100  and  _101
REMARK   48  A    between atoms: _105  and  _107
REMARK   49  A    between atoms: _107  and  _108
REMARK   50  A    between atoms: _107  and  _110
REMARK   51  A    between atoms: _110  and  _111
REMARK   52  A    between atoms: _116  and  _118
REMARK   53  A    between atoms: _118  and  _119
REMARK   54  A    between atoms: _118  and  _121
REMARK   55  A    between atoms: _121  and  _122
REMARK   56  A    between atoms: _125  and  _127
REMARK   57  A    between atoms: _127  and  _128
REMARK   58  A    between atoms: _127  and  _130
REMARK   59  A    between atoms: _130  and  _131
REMARK   60  A    between atoms: _134  and  _136
REMARK   61  A    between atoms: _136  and  _137
REMARK   62  A    between atoms: _136  and  _139
REMARK   63  A    between atoms: _139  and  _140
REMARK   64  A    between atoms: _143  and  _145
REMARK   65  A    between atoms: _145  and  _146
REMARK   66  A    between atoms: _145  and  _148
REMARK   67  A    between atoms: _150  and  _152
REMARK   68  A    between atoms: _152  and  _153
REMARK   69  A    between atoms: _152  and  _155
REMARK   70  A    between atoms: _155  and  _156
REMARK   71  A    between atoms: _156  and  _157
REMARK   72  A    between atoms: _157  and  _158
REMARK   73  A    between atoms: _167  and  _169
REMARK   74  A    between atoms: _169  and  _170
REMARK   75  A    between atoms: _169  and  _172
REMARK   76  A    between atoms: _172  and  _173
REMARK   77  A    between atoms: _173  and  _174
REMARK   78  A    between atoms: _174  and  _175
REMARK   79  A    between atoms: _175  and  _176
REMARK   80  A    between atoms: _180  and  _182
REMARK   81  A    between atoms: _182  and  _183
REMARK   82  A    between atoms: _182  and  _185
REMARK   83  A    between atoms: _185  and  _186
REMARK   84  A    between atoms: _191  and  _193
REMARK   85  A    between atoms: _193  and  _194
REMARK   86  A    between atoms: _193  and  _196
REMARK   87  A    between atoms: _196  and  _197
REMARK   88  A    between atoms: _200  and  _202
REMARK   89  A    between atoms: _202  and  _203
REMARK   90  A    between atoms: _206  and  _208
REMARK   91  A    between atoms: _208  and  _209
REMARK   92  A    between atoms: _208  and  _211
REMARK   93  A    between atoms: _214  and  _216
REMARK   94  A    between atoms: _216  and  _217
REMARK   95  A    between atoms: _216  and  _219
REMARK   96  A    between atoms: _219  and  _220
REMARK   97  A    between atoms: _225  and  _227
REMARK   98  A    between atoms: _227  and  _228
REMARK   99  A    between atoms: _227  and  _230
REMARK  100  A    between atoms: _230  and  _231
REMARK  101  A    between atoms: _237  and  _239
REMARK  102  A    between atoms: _239  and  _240
REMARK  103  A    between atoms: _239  and  _242
REMARK  104  A    between atoms: _242  and  _243
REMARK  105  A    between atoms: _246  and  _248
REMARK  106  A    between atoms: _248  and  _249
REMARK  107  A    between atoms: _252  and  _254
REMARK  108  A    between atoms: _254  and  _255
REMARK  109  A    between atoms: _254  and  _257
REMARK  110  A    between atoms: _257  and  _258
REMARK  111  A    between atoms: _260  and  _262
REMARK  112  A    between atoms: _262  and  _263
REMARK  113  A    between atoms: _262  and  _265
REMARK  114  A    between atoms: _269  and  _271
REMARK  115  A    between atoms: _271  and  _272
REMARK  116  A    between atoms: _271  and  _274
REMARK  117  A    between atoms: _274  and  _275
REMARK  118  A    between atoms: _275  and  _276
REMARK  119  A    between atoms: _276  and  _277
REMARK  120  A    between atoms: _277  and  _278
REMARK  121  A    between atoms: _282  and  _284
REMARK  122  A    between atoms: _284  and  _285
REMARK  123  A    between atoms: _284  and  _287
REMARK  124  A    between atoms: _287  and  _288
REMARK  125  A    between atoms: _294  and  _296
REMARK  126  A    between atoms: _296  and  _297
REMARK  127  A    between atoms: _296  and  _299
REMARK  128  A    between atoms: _299  and  _300
REMARK  129  A    between atoms: _300  and  _301
REMARK  130  A    between atoms: _306  and  _308
REMARK  131  A    between atoms: _308  and  _309
REMARK  132  A    between atoms: _308  and  _311
REMARK  133  A    between atoms: _311  and  _312
REMARK                            x       y       z     vdW  Elec       q    Type
REMARK                         _______ _______ _______ _____ _____    ______ ____
ROOT
ATOM      1  O   HOH     1      28.052  38.511   0.386  0.00  0.00    +0.000 OA
ENDROOT
TORSDOF 0
REMARK  Name = ../refined-set-2016/3djx/3djx_pocket.pdb
REMARK  133 active torsions:
REMARK  status: ('A' for Active; 'I' for Inactive)
REMARK    1  A    between atoms: _1  and  _3
REMARK    2  A    between atoms: _3  and  _4
REMARK    3  A    between atoms: _3  and  _6
REMARK    4  A    between atoms: _6  and  _7
REMARK    5  A    between atoms: _7  and  _8
REMARK    6  A    between atoms: _10  and  _12
REMARK    7  A    between atoms: _12  and  _13
REMARK    8  A    between atoms: _12  and  _15
REMARK    9  A    between atoms: _15  and  _16
REMARK   10  A    between atoms: _16  and  _17
REMARK   11  A    between atoms: _19  and  _21
REMARK   12  A    between atoms: _21  and  _22
REMARK   13  A    between atoms: _21  and  _24
REMARK   14  A    between atoms: _24  and  _25
REMARK   15  A    between atoms: _25  and  _26
REMARK   16  A    between atoms: _26  and  _27
REMARK   17  A    between atoms: _27  and  _28
REMARK   18  A    between atoms: _32  and  _34
REMARK   19  A    between atoms: _34  and  _35
REMARK   20  A    between atoms: _34  and  _37
REMARK   21  A    between atoms: _37  and  _38
REMARK   22  A    between atoms: _38  and  _39
REMARK   23  A    between atoms: _39  and  _40
REMARK   24  A    between atoms: _40  and  _41
REMARK   25  A    between atoms: _46  and  _47
REMARK   26  A    between atoms: _52  and  _54
REMARK   27  A    between atoms: _54  and  _55
REMARK   28  A    between atoms: _54  and  _57
REMARK   29  A    between atoms: _60  and  _62
REMARK   30  A    between atoms: _62  and  _63
REMARK   31  A    between atoms: _62  and  _65
REMARK   32  A    between atoms: _65  and  _66
REMARK   33  A    between atoms: _71  and  _73
REMARK   34  A    between atoms: _73  and  _74
REMARK   35  A    between atoms: _73  and  _76
REMARK   36  A    between atoms: _76  and  _77
REMARK   37  A    between atoms: _80  and  _82
REMARK   38  A    between atoms: _82  and  _83
REMARK   39  A    between atoms: _82  and  _85
REMARK   40  A    between atoms: _85  and  _86
REMARK   41  A    between atoms: _92  and  _94
REMARK   42  A    between atoms: _94  and  _95
REMARK   43  A    between atoms: _94  and  _97
REMARK   44  A    between atoms: _97  and  _98
REMARK   45  A    between atoms: _98  and  _99
REMARK   46  A    between atoms: _99  and  _100
REMARK   47  A    between atoms: _100  and  _101
REMARK   48  A    between atoms: _105  and  _107
REMARK   49  A    between atoms: _107  and  _108
REMARK   50  A    between atoms: _107  and  _110
REMARK   51  A    between atoms: _110  and  _111
REMARK   52  A    between atoms: _116  and  _118
REMARK   53  A    between atoms: _118  and  _119
REMARK   54  A    between atoms: _118  and  _121
REMARK   55  A    between atoms: _121  and  _122
REMARK   56  A    between atoms: _125  and  _127
REMARK   57  A    between atoms: _127  and  _128
REMARK   58  A    between atoms: _127  and  _130
REMARK   59  A    between atoms: _130  and  _131
REMARK   60  A    between atoms: _134  and  _136
REMARK   61  A    between atoms: _136  and  _137
REMARK   62  A    between atoms: _136  and  _139
REMARK   63  A    between atoms: _139  and  _140
REMARK   64  A    between atoms: _143  and  _145
REMARK   65  A    between atoms: _145  and  _146
REMARK   66  A    between atoms: _145  and  _148
REMARK   67  A    between atoms: _150  and  _152
REMARK   68  A    between atoms: _152  and  _153
REMARK   69  A    between atoms: _152  and  _155
REMARK   70  A    between atoms: _155  and  _156
REMARK   71  A    between atoms: _156  and  _157
REMARK   72  A    between atoms: _157  and  _158
REMARK   73  A    between atoms: _167  and  _169
REMARK   74  A    between atoms: _169  and  _170
REMARK   75  A    between atoms: _169  and  _172
REMARK   76  A    between atoms: _172  and  _173
REMARK   77  A    between atoms: _173  and  _174
REMARK   78  A    between atoms: _174  and  _175
REMARK   79  A    between atoms: _175  and  _176
REMARK   80  A    between atoms: _180  and  _182
REMARK   81  A    between atoms: _182  and  _183
REMARK   82  A    between atoms: _182  and  _185
REMARK   83  A    between atoms: _185  and  _186
REMARK   84  A    between atoms: _191  and  _193
REMARK   85  A    between atoms: _193  and  _194
REMARK   86  A    between atoms: _193  and  _196
REMARK   87  A    between atoms: _196  and  _197
REMARK   88  A    between atoms: _200  and  _202
REMARK   89  A    between atoms: _202  and  _203
REMARK   90  A    between atoms: _206  and  _208
REMARK   91  A    between atoms: _208  and  _209
REMARK   92  A    between atoms: _208  and  _211
REMARK   93  A    between atoms: _214  and  _216
REMARK   94  A    between atoms: _216  and  _217
REMARK   95  A    between atoms: _216  and  _219
REMARK   96  A    between atoms: _219  and  _220
REMARK   97  A    between atoms: _225  and  _227
REMARK   98  A    between atoms: _227  and  _228
REMARK   99  A    between atoms: _227  and  _230
REMARK  100  A    between atoms: _230  and  _231
REMARK  101  A    between atoms: _237  and  _239
REMARK  102  A    between atoms: _239  and  _240
REMARK  103  A    between atoms: _239  and  _242
REMARK  104  A    between atoms: _242  and  _243
REMARK  105  A    between atoms: _246  and  _248
REMARK  106  A    between atoms: _248  and  _249
REMARK  107  A    between atoms: _252  and  _254
REMARK  108  A    between atoms: _254  and  _255
REMARK  109  A    between atoms: _254  and  _257
REMARK  110  A    between atoms: _257  and  _258
REMARK  111  A    between atoms: _260  and  _262
REMARK  112  A    between atoms: _262  and  _263
REMARK  113  A    between atoms: _262  and  _265
REMARK  114  A    between atoms: _269  and  _271
REMARK  115  A    between atoms: _271  and  _272
REMARK  116  A    between atoms: _271  and  _274
REMARK  117  A    between atoms: _274  and  _275
REMARK  118  A    between atoms: _275  and  _276
REMARK  119  A    between atoms: _276  and  _277
REMARK  120  A    between atoms: _277  and  _278
REMARK  121  A    between atoms: _282  and  _284
REMARK  122  A    between atoms: _284  and  _285
REMARK  123  A    between atoms: _284  and  _287
REMARK  124  A    between atoms: _287  and  _288
REMARK  125  A    between atoms: _294  and  _296
REMARK  126  A    between atoms: _296  and  _297
REMARK  127  A    between atoms: _296  and  _299
REMARK  128  A    between atoms: _299  and  _300
REMARK  129  A    between atoms: _300  and  _301
REMARK  130  A    between atoms: _306  and  _308
REMARK  131  A    between atoms: _308  and  _309
REMARK  132  A    between atoms: _308  and  _311
REMARK  133  A    between atoms: _311  and  _312
REMARK                            x       y       z     vdW  Elec       q    Type
REMARK                         _______ _______ _______ _____ _____    ______ ____
ROOT
ATOM      1  O   HOH     1      26.644  39.766  14.901  0.00  0.00    +0.000 OA
ENDROOT
TORSDOF 0
REMARK  Name = ../refined-set-2016/3djx/3djx_pocket.pdb
REMARK  133 active torsions:
REMARK  status: ('A' for Active; 'I' for Inactive)
REMARK    1  A    between atoms: _1  and  _3
REMARK    2  A    between atoms: _3  and  _4
REMARK    3  A    between atoms: _3  and  _6
REMARK    4  A    between atoms: _6  and  _7
REMARK    5  A    between atoms: _7  and  _8
REMARK    6  A    between atoms: _10  and  _12
REMARK    7  A    between atoms: _12  and  _13
REMARK    8  A    between atoms: _12  and  _15
REMARK    9  A    between atoms: _15  and  _16
REMARK   10  A    between atoms: _16  and  _17
REMARK   11  A    between atoms: _19  and  _21
REMARK   12  A    between atoms: _21  and  _22
REMARK   13  A    between atoms: _21  and  _24
REMARK   14  A    between atoms: _24  and  _25
REMARK   15  A    between atoms: _25  and  _26
REMARK   16  A    between atoms: _26  and  _27
REMARK   17  A    between atoms: _27  and  _28
REMARK   18  A    between atoms: _32  and  _34
REMARK   19  A    between atoms: _34  and  _35
REMARK   20  A    between atoms: _34  and  _37
REMARK   21  A    between atoms: _37  and  _38
REMARK   22  A    between atoms: _38  and  _39
REMARK   23  A    between atoms: _39  and  _40
REMARK   24  A    between atoms: _40  and  _41
REMARK   25  A    between atoms: _46  and  _47
REMARK   26  A    between atoms: _52  and  _54
REMARK   27  A    between atoms: _54  and  _55
REMARK   28  A    between atoms: _54  and  _57
REMARK   29  A    between atoms: _60  and  _62
REMARK   30  A    between atoms: _62  and  _63
REMARK   31  A    between atoms: _62  and  _65
REMARK   32  A    between atoms: _65  and  _66
REMARK   33  A    between atoms: _71  and  _73
REMARK   34  A    between atoms: _73  and  _74
REMARK   35  A    between atoms: _73  and  _76
REMARK   36  A    between atoms: _76  and  _77
REMARK   37  A    between atoms: _80  and  _82
REMARK   38  A    between atoms: _82  and  _83
REMARK   39  A    between atoms: _82  and  _85
REMARK   40  A    between atoms: _85  and  _86
REMARK   41  A    between atoms: _92  and  _94
REMARK   42  A    between atoms: _94  and  _95
REMARK   43  A    between atoms: _94  and  _97
REMARK   44  A    between atoms: _97  and  _98
REMARK   45  A    between atoms: _98  and  _99
REMARK   46  A    between atoms: _99  and  _100
REMARK   47  A    between atoms: _100  and  _101
REMARK   48  A    between atoms: _105  and  _107
REMARK   49  A    between atoms: _107  and  _108
REMARK   50  A    between atoms: _107  and  _110
REMARK   51  A    between atoms: _110  and  _111
REMARK   52  A    between atoms: _116  and  _118
REMARK   53  A    between atoms: _118  and  _119
REMARK   54  A    between atoms: _118  and  _121
REMARK   55  A    between atoms: _121  and  _122
REMARK   56  A    between atoms: _125  and  _127
REMARK   57  A    between atoms: _127  and  _128
REMARK   58  A    between atoms: _127  and  _130
REMARK   59  A    between atoms: _130  and  _131
REMARK   60  A    between atoms: _134  and  _136
REMARK   61  A    between atoms: _136  and  _137
REMARK   62  A    between atoms: _136  and  _139
REMARK   63  A    between atoms: _139  and  _140
REMARK   64  A    between atoms: _143  and  _145
REMARK   65  A    between atoms: _145  and  _146
REMARK   66  A    between atoms: _145  and  _148
REMARK   67  A    between atoms: _150  and  _152
REMARK   68  A    between atoms: _152  and  _153
REMARK   69  A    between atoms: _152  and  _155
REMARK   70  A    between atoms: _155  and  _156
REMARK   71  A    between atoms: _156  and  _157
REMARK   72  A    between atoms: _157  and  _158
REMARK   73  A    between atoms: _167  and  _169
REMARK   74  A    between atoms: _169  and  _170
REMARK   75  A    between atoms: _169  and  _172
REMARK   76  A    between atoms: _172  and  _173
REMARK   77  A    between atoms: _173  and  _174
REMARK   78  A    between atoms: _174  and  _175
REMARK   79  A    between atoms: _175  and  _176
REMARK   80  A    between atoms: _180  and  _182
REMARK   81  A    between atoms: _182  and  _183
REMARK   82  A    between atoms: _182  and  _185
REMARK   83  A    between atoms: _185  and  _186
REMARK   84  A    between atoms: _191  and  _193
REMARK   85  A    between atoms: _193  and  _194
REMARK   86  A    between atoms: _193  and  _196
REMARK   87  A    between atoms: _196  and  _197
REMARK   88  A    between atoms: _200  and  _202
REMARK   89  A    between atoms: _202  and  _203
REMARK   90  A    between atoms: _206  and  _208
REMARK   91  A    between atoms: _208  and  _209
REMARK   92  A    between atoms: _208  and  _211
REMARK   93  A    between atoms: _214  and  _216
REMARK   94  A    between atoms: _216  and  _217
REMARK   95  A    between atoms: _216  and  _219
REMARK   96  A    between atoms: _219  and  _220
REMARK   97  A    between atoms: _225  and  _227
REMARK   98  A    between atoms: _227  and  _228
REMARK   99  A    between atoms: _227  and  _230
REMARK  100  A    between atoms: _230  and  _231
REMARK  101  A    between atoms: _237  and  _239
REMARK  102  A    between atoms: _239  and  _240
REMARK  103  A    between atoms: _239  and  _242
REMARK  104  A    between atoms: _242  and  _243
REMARK  105  A    between atoms: _246  and  _248
REMARK  106  A    between atoms: _248  and  _249
REMARK  107  A    between atoms: _252  and  _254
REMARK  108  A    between atoms: _254  and  _255
REMARK  109  A    between atoms: _254  and  _257
REMARK  110  A    between atoms: _257  and  _258
REMARK  111  A    between atoms: _260  and  _262
REMARK  112  A    between atoms: _262  and  _263
REMARK  113  A    between atoms: _262  and  _265
REMARK  114  A    between atoms: _269  and  _271
REMARK  115  A    between atoms: _271  and  _272
REMARK  116  A    between atoms: _271  and  _274
REMARK  117  A    between atoms: _274  and  _275
REMARK  118  A    between atoms: _275  and  _276
REMARK  119  A    between atoms: _276  and  _277
REMARK  120  A    between atoms: _277  and  _278
REMARK  121  A    between atoms: _282  and  _284
REMARK  122  A    between atoms: _284  and  _285
REMARK  123  A    between atoms: _284  and  _287
REMARK  124  A    between atoms: _287  and  _288
REMARK  125  A    between atoms: _294  and  _296
REMARK  126  A    between atoms: _296  and  _297
REMARK  127  A    between atoms: _296  and  _299
REMARK  128  A    between atoms: _299  and  _300
REMARK  129  A    between atoms: _300  and  _301
REMARK  130  A    between atoms: _306  and  _308
REMARK  131  A    between atoms: _308  and  _309
REMARK  132  A    between atoms: _308  and  _311
REMARK  133  A    between atoms: _311  and  _312
REMARK                            x       y       z     vdW  Elec       q    Type
REMARK                         _______ _______ _______ _____ _____    ______ ____
ROOT
ATOM      1  O   HOH     1      39.540  41.984   9.567  0.00  0.00    +0.000 OA
ENDROOT
TORSDOF 0
REMARK  Name = ../refined-set-2016/3djx/3djx_pocket.pdb
REMARK  133 active torsions:
REMARK  status: ('A' for Active; 'I' for Inactive)
REMARK    1  A    between atoms: _1  and  _3
REMARK    2  A    between atoms: _3  and  _4
REMARK    3  A    between atoms: _3  and  _6
REMARK    4  A    between atoms: _6  and  _7
REMARK    5  A    between atoms: _7  and  _8
REMARK    6  A    between atoms: _10  and  _12
REMARK    7  A    between atoms: _12  and  _13
REMARK    8  A    between atoms: _12  and  _15
REMARK    9  A    between atoms: _15  and  _16
REMARK   10  A    between atoms: _16  and  _17
REMARK   11  A    between atoms: _19  and  _21
REMARK   12  A    between atoms: _21  and  _22
REMARK   13  A    between atoms: _21  and  _24
REMARK   14  A    between atoms: _24  and  _25
REMARK   15  A    between atoms: _25  and  _26
REMARK   16  A    between atoms: _26  and  _27
REMARK   17  A    between atoms: _27  and  _28
REMARK   18  A    between atoms: _32  and  _34
REMARK   19  A    between atoms: _34  and  _35
REMARK   20  A    between atoms: _34  and  _37
REMARK   21  A    between atoms: _37  and  _38
REMARK   22  A    between atoms: _38  and  _39
REMARK   23  A    between atoms: _39  and  _40
REMARK   24  A    between atoms: _40  and  _41
REMARK   25  A    between atoms: _46  and  _47
REMARK   26  A    between atoms: _52  and  _54
REMARK   27  A    between atoms: _54  and  _55
REMARK   28  A    between atoms: _54  and  _57
REMARK   29  A    between atoms: _60  and  _62
REMARK   30  A    between atoms: _62  and  _63
REMARK   31  A    between atoms: _62  and  _65
REMARK   32  A    between atoms: _65  and  _66
REMARK   33  A    between atoms: _71  and  _73
REMARK   34  A    between atoms: _73  and  _74
REMARK   35  A    between atoms: _73  and  _76
REMARK   36  A    between atoms: _76  and  _77
REMARK   37  A    between atoms: _80  and  _82
REMARK   38  A    between atoms: _82  and  _83
REMARK   39  A    between atoms: _82  and  _85
REMARK   40  A    between atoms: _85  and  _86
REMARK   41  A    between atoms: _92  and  _94
REMARK   42  A    between atoms: _94  and  _95
REMARK   43  A    between atoms: _94  and  _97
REMARK   44  A    between atoms: _97  and  _98
REMARK   45  A    between atoms: _98  and  _99
REMARK   46  A    between atoms: _99  and  _100
REMARK   47  A    between atoms: _100  and  _101
REMARK   48  A    between atoms: _105  and  _107
REMARK   49  A    between atoms: _107  and  _108
REMARK   50  A    between atoms: _107  and  _110
REMARK   51  A    between atoms: _110  and  _111
REMARK   52  A    between atoms: _116  and  _118
REMARK   53  A    between atoms: _118  and  _119
REMARK   54  A    between atoms: _118  and  _121
REMARK   55  A    between atoms: _121  and  _122
REMARK   56  A    between atoms: _125  and  _127
REMARK   57  A    between atoms: _127  and  _128
REMARK   58  A    between atoms: _127  and  _130
REMARK   59  A    between atoms: _130  and  _131
REMARK   60  A    between atoms: _134  and  _136
REMARK   61  A    between atoms: _136  and  _137
REMARK   62  A    between atoms: _136  and  _139
REMARK   63  A    between atoms: _139  and  _140
REMARK   64  A    between atoms: _143  and  _145
REMARK   65  A    between atoms: _145  and  _146
REMARK   66  A    between atoms: _145  and  _148
REMARK   67  A    between atoms: _150  and  _152
REMARK   68  A    between atoms: _152  and  _153
REMARK   69  A    between atoms: _152  and  _155
REMARK   70  A    between atoms: _155  and  _156
REMARK   71  A    between atoms: _156  and  _157
REMARK   72  A    between atoms: _157  and  _158
REMARK   73  A    between atoms: _167  and  _169
REMARK   74  A    between atoms: _169  and  _170
REMARK   75  A    between atoms: _169  and  _172
REMARK   76  A    between atoms: _172  and  _173
REMARK   77  A    between atoms: _173  and  _174
REMARK   78  A    between atoms: _174  and  _175
REMARK   79  A    between atoms: _175  and  _176
REMARK   80  A    between atoms: _180  and  _182
REMARK   81  A    between atoms: _182  and  _183
REMARK   82  A    between atoms: _182  and  _185
REMARK   83  A    between atoms: _185  and  _186
REMARK   84  A    between atoms: _191  and  _193
REMARK   85  A    between atoms: _193  and  _194
REMARK   86  A    between atoms: _193  and  _196
REMARK   87  A    between atoms: _196  and  _197
REMARK   88  A    between atoms: _200  and  _202
REMARK   89  A    between atoms: _202  and  _203
REMARK   90  A    between atoms: _206  and  _208
REMARK   91  A    between atoms: _208  and  _209
REMARK   92  A    between atoms: _208  and  _211
REMARK   93  A    between atoms: _214  and  _216
REMARK   94  A    between atoms: _216  and  _217
REMARK   95  A    between atoms: _216  and  _219
REMARK   96  A    between atoms: _219  and  _220
REMARK   97  A    between atoms: _225  and  _227
REMARK   98  A    between atoms: _227  and  _228
REMARK   99  A    between atoms: _227  and  _230
REMARK  100  A    between atoms: _230  and  _231
REMARK  101  A    between atoms: _237  and  _239
REMARK  102  A    between atoms: _239  and  _240
REMARK  103  A    between atoms: _239  and  _242
REMARK  104  A    between atoms: _242  and  _243
REMARK  105  A    between atoms: _246  and  _248
REMARK  106  A    between atoms: _248  and  _249
REMARK  107  A    between atoms: _252  and  _254
REMARK  108  A    between atoms: _254  and  _255
REMARK  109  A    between atoms: _254  and  _257
REMARK  110  A    between atoms: _257  and  _258
REMARK  111  A    between atoms: _260  and  _262
REMARK  112  A    between atoms: _262  and  _263
REMARK  113  A    between atoms: _262  and  _265
REMARK  114  A    between atoms: _269  and  _271
REMARK  115  A    between atoms: _271  and  _272
REMARK  116  A    between atoms: _271  and  _274
REMARK  117  A    between atoms: _274  and  _275
REMARK  118  A    between atoms: _275  and  _276
REMARK  119  A    between atoms: _276  and  _277
REMARK  120  A    between atoms: _277  and  _278
REMARK  121  A    between atoms: _282  and  _284
REMARK  122  A    between atoms: _284  and  _285
REMARK  123  A    between atoms: _284  and  _287
REMARK  124  A    between atoms: _287  and  _288
REMARK  125  A    between atoms: _294  and  _296
REMARK  126  A    between atoms: _296  and  _297
REMARK  127  A    between atoms: _296  and  _299
REMARK  128  A    between atoms: _299  and  _300
REMARK  129  A    between atoms: _300  and  _301
REMARK  130  A    between atoms: _306  and  _308
REMARK  131  A    between atoms: _308  and  _309
REMARK  132  A    between atoms: _308  and  _311
REMARK  133  A    between atoms: _311  and  _312
REMARK                            x       y       z     vdW  Elec       q    Type
REMARK                         _______ _______ _______ _____ _____    ______ ____
ROOT
ATOM      1  O   HOH     1      38.457  40.598  11.572  0.00  0.00    +0.000 OA
ENDROOT
TORSDOF 0
REMARK  Name = ../refined-set-2016/3djx/3djx_pocket.pdb
REMARK  133 active torsions:
REMARK  status: ('A' for Active; 'I' for Inactive)
REMARK    1  A    between atoms: _1  and  _3
REMARK    2  A    between atoms: _3  and  _4
REMARK    3  A    between atoms: _3  and  _6
REMARK    4  A    between atoms: _6  and  _7
REMARK    5  A    between atoms: _7  and  _8
REMARK    6  A    between atoms: _10  and  _12
REMARK    7  A    between atoms: _12  and  _13
REMARK    8  A    between atoms: _12  and  _15
REMARK    9  A    between atoms: _15  and  _16
REMARK   10  A    between atoms: _16  and  _17
REMARK   11  A    between atoms: _19  and  _21
REMARK   12  A    between atoms: _21  and  _22
REMARK   13  A    between atoms: _21  and  _24
REMARK   14  A    between atoms: _24  and  _25
REMARK   15  A    between atoms: _25  and  _26
REMARK   16  A    between atoms: _26  and  _27
REMARK   17  A    between atoms: _27  and  _28
REMARK   18  A    between atoms: _32  and  _34
REMARK   19  A    between atoms: _34  and  _35
REMARK   20  A    between atoms: _34  and  _37
REMARK   21  A    between atoms: _37  and  _38
REMARK   22  A    between atoms: _38  and  _39
REMARK   23  A    between atoms: _39  and  _40
REMARK   24  A    between atoms: _40  and  _41
REMARK   25  A    between atoms: _46  and  _47
REMARK   26  A    between atoms: _52  and  _54
REMARK   27  A    between atoms: _54  and  _55
REMARK   28  A    between atoms: _54  and  _57
REMARK   29  A    between atoms: _60  and  _62
REMARK   30  A    between atoms: _62  and  _63
REMARK   31  A    between atoms: _62  and  _65
REMARK   32  A    between atoms: _65  and  _66
REMARK   33  A    between atoms: _71  and  _73
REMARK   34  A    between atoms: _73  and  _74
REMARK   35  A    between atoms: _73  and  _76
REMARK   36  A    between atoms: _76  and  _77
REMARK   37  A    between atoms: _80  and  _82
REMARK   38  A    between atoms: _82  and  _83
REMARK   39  A    between atoms: _82  and  _85
REMARK   40  A    between atoms: _85  and  _86
REMARK   41  A    between atoms: _92  and  _94
REMARK   42  A    between atoms: _94  and  _95
REMARK   43  A    between atoms: _94  and  _97
REMARK   44  A    between atoms: _97  and  _98
REMARK   45  A    between atoms: _98  and  _99
REMARK   46  A    between atoms: _99  and  _100
REMARK   47  A    between atoms: _100  and  _101
REMARK   48  A    between atoms: _105  and  _107
REMARK   49  A    between atoms: _107  and  _108
REMARK   50  A    between atoms: _107  and  _110
REMARK   51  A    between atoms: _110  and  _111
REMARK   52  A    between atoms: _116  and  _118
REMARK   53  A    between atoms: _118  and  _119
REMARK   54  A    between atoms: _118  and  _121
REMARK   55  A    between atoms: _121  and  _122
REMARK   56  A    between atoms: _125  and  _127
REMARK   57  A    between atoms: _127  and  _128
REMARK   58  A    between atoms: _127  and  _130
REMARK   59  A    between atoms: _130  and  _131
REMARK   60  A    between atoms: _134  and  _136
REMARK   61  A    between atoms: _136  and  _137
REMARK   62  A    between atoms: _136  and  _139
REMARK   63  A    between atoms: _139  and  _140
REMARK   64  A    between atoms: _143  and  _145
REMARK   65  A    between atoms: _145  and  _146
REMARK   66  A    between atoms: _145  and  _148
REMARK   67  A    between atoms: _150  and  _152
REMARK   68  A    between atoms: _152  and  _153
REMARK   69  A    between atoms: _152  and  _155
REMARK   70  A    between atoms: _155  and  _156
REMARK   71  A    between atoms: _156  and  _157
REMARK   72  A    between atoms: _157  and  _158
REMARK   73  A    between atoms: _167  and  _169
REMARK   74  A    between atoms: _169  and  _170
REMARK   75  A    between atoms: _169  and  _172
REMARK   76  A    between atoms: _172  and  _173
REMARK   77  A    between atoms: _173  and  _174
REMARK   78  A    between atoms: _174  and  _175
REMARK   79  A    between atoms: _175  and  _176
REMARK   80  A    between atoms: _180  and  _182
REMARK   81  A    between atoms: _182  and  _183
REMARK   82  A    between atoms: _182  and  _185
REMARK   83  A    between atoms: _185  and  _186
REMARK   84  A    between atoms: _191  and  _193
REMARK   85  A    between atoms: _193  and  _194
REMARK   86  A    between atoms: _193  and  _196
REMARK   87  A    between atoms: _196  and  _197
REMARK   88  A    between atoms: _200  and  _202
REMARK   89  A    between atoms: _202  and  _203
REMARK   90  A    between atoms: _206  and  _208
REMARK   91  A    between atoms: _208  and  _209
REMARK   92  A    between atoms: _208  and  _211
REMARK   93  A    between atoms: _214  and  _216
REMARK   94  A    between atoms: _216  and  _217
REMARK   95  A    between atoms: _216  and  _219
REMARK   96  A    between atoms: _219  and  _220
REMARK   97  A    between atoms: _225  and  _227
REMARK   98  A    between atoms: _227  and  _228
REMARK   99  A    between atoms: _227  and  _230
REMARK  100  A    between atoms: _230  and  _231
REMARK  101  A    between atoms: _237  and  _239
REMARK  102  A    between atoms: _239  and  _240
REMARK  103  A    between atoms: _239  and  _242
REMARK  104  A    between atoms: _242  and  _243
REMARK  105  A    between atoms: _246  and  _248
REMARK  106  A    between atoms: _248  and  _249
REMARK  107  A    between atoms: _252  and  _254
REMARK  108  A    between atoms: _254  and  _255
REMARK  109  A    between atoms: _254  and  _257
REMARK  110  A    between atoms: _257  and  _258
REMARK  111  A    between atoms: _260  and  _262
REMARK  112  A    between atoms: _262  and  _263
REMARK  113  A    between atoms: _262  and  _265
REMARK  114  A    between atoms: _269  and  _271
REMARK  115  A    between atoms: _271  and  _272
REMARK  116  A    between atoms: _271  and  _274
REMARK  117  A    between atoms: _274  and  _275
REMARK  118  A    between atoms: _275  and  _276
REMARK  119  A    between atoms: _276  and  _277
REMARK  120  A    between atoms: _277  and  _278
REMARK  121  A    between atoms: _282  and  _284
REMARK  122  A    between atoms: _284  and  _285
REMARK  123  A    between atoms: _284  and  _287
REMARK  124  A    between atoms: _287  and  _288
REMARK  125  A    between atoms: _294  and  _296
REMARK  126  A    between atoms: _296  and  _297
REMARK  127  A    between atoms: _296  and  _299
REMARK  128  A    between atoms: _299  and  _300
REMARK  129  A    between atoms: _300  and  _301
REMARK  130  A    between atoms: _306  and  _308
REMARK  131  A    between atoms: _308  and  _309
REMARK  132  A    between atoms: _308  and  _311
REMARK  133  A    between atoms: _311  and  _312
REMARK                            x       y       z     vdW  Elec       q    Type
REMARK                         _______ _______ _______ _____ _____    ______ ____
ROOT
ATOM      1  O   HOH     1      31.505  43.741   4.190  0.00  0.00    +0.000 OA
ENDROOT
TORSDOF 0
REMARK  Name = ../refined-set-2016/3djx/3djx_pocket.pdb
REMARK  133 active torsions:
REMARK  status: ('A' for Active; 'I' for Inactive)
REMARK    1  A    between atoms: _1  and  _3
REMARK    2  A    between atoms: _3  and  _4
REMARK    3  A    between atoms: _3  and  _6
REMARK    4  A    between atoms: _6  and  _7
REMARK    5  A    between atoms: _7  and  _8
REMARK    6  A    between atoms: _10  and  _12
REMARK    7  A    between atoms: _12  and  _13
REMARK    8  A    between atoms: _12  and  _15
REMARK    9  A    between atoms: _15  and  _16
REMARK   10  A    between atoms: _16  and  _17
REMARK   11  A    between atoms: _19  and  _21
REMARK   12  A    between atoms: _21  and  _22
REMARK   13  A    between atoms: _21  and  _24
REMARK   14  A    between atoms: _24  and  _25
REMARK   15  A    between atoms: _25  and  _26
REMARK   16  A    between atoms: _26  and  _27
REMARK   17  A    between atoms: _27  and  _28
REMARK   18  A    between atoms: _32  and  _34
REMARK   19  A    between atoms: _34  and  _35
REMARK   20  A    between atoms: _34  and  _37
REMARK   21  A    between atoms: _37  and  _38
REMARK   22  A    between atoms: _38  and  _39
REMARK   23  A    between atoms: _39  and  _40
REMARK   24  A    between atoms: _40  and  _41
REMARK   25  A    between atoms: _46  and  _47
REMARK   26  A    between atoms: _52  and  _54
REMARK   27  A    between atoms: _54  and  _55
REMARK   28  A    between atoms: _54  and  _57
REMARK   29  A    between atoms: _60  and  _62
REMARK   30  A    between atoms: _62  and  _63
REMARK   31  A    between atoms: _62  and  _65
REMARK   32  A    between atoms: _65  and  _66
REMARK   33  A    between atoms: _71  and  _73
REMARK   34  A    between atoms: _73  and  _74
REMARK   35  A    between atoms: _73  and  _76
REMARK   36  A    between atoms: _76  and  _77
REMARK   37  A    between atoms: _80  and  _82
REMARK   38  A    between atoms: _82  and  _83
REMARK   39  A    between atoms: _82  and  _85
REMARK   40  A    between atoms: _85  and  _86
REMARK   41  A    between atoms: _92  and  _94
REMARK   42  A    between atoms: _94  and  _95
REMARK   43  A    between atoms: _94  and  _97
REMARK   44  A    between atoms: _97  and  _98
REMARK   45  A    between atoms: _98  and  _99
REMARK   46  A    between atoms: _99  and  _100
REMARK   47  A    between atoms: _100  and  _101
REMARK   48  A    between atoms: _105  and  _107
REMARK   49  A    between atoms: _107  and  _108
REMARK   50  A    between atoms: _107  and  _110
REMARK   51  A    between atoms: _110  and  _111
REMARK   52  A    between atoms: _116  and  _118
REMARK   53  A    between atoms: _118  and  _119
REMARK   54  A    between atoms: _118  and  _121
REMARK   55  A    between atoms: _121  and  _122
REMARK   56  A    between atoms: _125  and  _127
REMARK   57  A    between atoms: _127  and  _128
REMARK   58  A    between atoms: _127  and  _130
REMARK   59  A    between atoms: _130  and  _131
REMARK   60  A    between atoms: _134  and  _136
REMARK   61  A    between atoms: _136  and  _137
REMARK   62  A    between atoms: _136  and  _139
REMARK   63  A    between atoms: _139  and  _140
REMARK   64  A    between atoms: _143  and  _145
REMARK   65  A    between atoms: _145  and  _146
REMARK   66  A    between atoms: _145  and  _148
REMARK   67  A    between atoms: _150  and  _152
REMARK   68  A    between atoms: _152  and  _153
REMARK   69  A    between atoms: _152  and  _155
REMARK   70  A    between atoms: _155  and  _156
REMARK   71  A    between atoms: _156  and  _157
REMARK   72  A    between atoms: _157  and  _158
REMARK   73  A    between atoms: _167  and  _169
REMARK   74  A    between atoms: _169  and  _170
REMARK   75  A    between atoms: _169  and  _172
REMARK   76  A    between atoms: _172  and  _173
REMARK   77  A    between atoms: _173  and  _174
REMARK   78  A    between atoms: _174  and  _175
REMARK   79  A    between atoms: _175  and  _176
REMARK   80  A    between atoms: _180  and  _182
REMARK   81  A    between atoms: _182  and  _183
REMARK   82  A    between atoms: _182  and  _185
REMARK   83  A    between atoms: _185  and  _186
REMARK   84  A    between atoms: _191  and  _193
REMARK   85  A    between atoms: _193  and  _194
REMARK   86  A    between atoms: _193  and  _196
REMARK   87  A    between atoms: _196  and  _197
REMARK   88  A    between atoms: _200  and  _202
REMARK   89  A    between atoms: _202  and  _203
REMARK   90  A    between atoms: _206  and  _208
REMARK   91  A    between atoms: _208  and  _209
REMARK   92  A    between atoms: _208  and  _211
REMARK   93  A    between atoms: _214  and  _216
REMARK   94  A    between atoms: _216  and  _217
REMARK   95  A    between atoms: _216  and  _219
REMARK   96  A    between atoms: _219  and  _220
REMARK   97  A    between atoms: _225  and  _227
REMARK   98  A    between atoms: _227  and  _228
REMARK   99  A    between atoms: _227  and  _230
REMARK  100  A    between atoms: _230  and  _231
REMARK  101  A    between atoms: _237  and  _239
REMARK  102  A    between atoms: _239  and  _240
REMARK  103  A    between atoms: _239  and  _242
REMARK  104  A    between atoms: _242  and  _243
REMARK  105  A    between atoms: _246  and  _248
REMARK  106  A    between atoms: _248  and  _249
REMARK  107  A    between atoms: _252  and  _254
REMARK  108  A    between atoms: _254  and  _255
REMARK  109  A    between atoms: _254  and  _257
REMARK  110  A    between atoms: _257  and  _258
REMARK  111  A    between atoms: _260  and  _262
REMARK  112  A    between atoms: _262  and  _263
REMARK  113  A    between atoms: _262  and  _265
REMARK  114  A    between atoms: _269  and  _271
REMARK  115  A    between atoms: _271  and  _272
REMARK  116  A    between atoms: _271  and  _274
REMARK  117  A    between atoms: _274  and  _275
REMARK  118  A    between atoms: _275  and  _276
REMARK  119  A    between atoms: _276  and  _277
REMARK  120  A    between atoms: _277  and  _278
REMARK  121  A    between atoms: _282  and  _284
REMARK  122  A    between atoms: _284  and  _285
REMARK  123  A    between atoms: _284  and  _287
REMARK  124  A    between atoms: _287  and  _288
REMARK  125  A    between atoms: _294  and  _296
REMARK  126  A    between atoms: _296  and  _297
REMARK  127  A    between atoms: _296  and  _299
REMARK  128  A    between atoms: _299  and  _300
REMARK  129  A    between atoms: _300  and  _301
REMARK  130  A    between atoms: _306  and  _308
REMARK  131  A    between atoms: _308  and  _309
REMARK  132  A    between atoms: _308  and  _311
REMARK  133  A    between atoms: _311  and  _312
REMARK                            x       y       z     vdW  Elec       q    Type
REMARK                         _______ _______ _______ _____ _____    ______ ____
ROOT
ATOM      1  O   HOH     1      25.222  41.450  -2.101  0.00  0.00    +0.000 OA
ENDROOT
TORSDOF 0
REMARK  Name = ../refined-set-2016/3djx/3djx_pocket.pdb
REMARK  133 active torsions:
REMARK  status: ('A' for Active; 'I' for Inactive)
REMARK    1  A    between atoms: _1  and  _3
REMARK    2  A    between atoms: _3  and  _4
REMARK    3  A    between atoms: _3  and  _6
REMARK    4  A    between atoms: _6  and  _7
REMARK    5  A    between atoms: _7  and  _8
REMARK    6  A    between atoms: _10  and  _12
REMARK    7  A    between atoms: _12  and  _13
REMARK    8  A    between atoms: _12  and  _15
REMARK    9  A    between atoms: _15  and  _16
REMARK   10  A    between atoms: _16  and  _17
REMARK   11  A    between atoms: _19  and  _21
REMARK   12  A    between atoms: _21  and  _22
REMARK   13  A    between atoms: _21  and  _24
REMARK   14  A    between atoms: _24  and  _25
REMARK   15  A    between atoms: _25  and  _26
REMARK   16  A    between atoms: _26  and  _27
REMARK   17  A    between atoms: _27  and  _28
REMARK   18  A    between atoms: _32  and  _34
REMARK   19  A    between atoms: _34  and  _35
REMARK   20  A    between atoms: _34  and  _37
REMARK   21  A    between atoms: _37  and  _38
REMARK   22  A    between atoms: _38  and  _39
REMARK   23  A    between atoms: _39  and  _40
REMARK   24  A    between atoms: _40  and  _41
REMARK   25  A    between atoms: _46  and  _47
REMARK   26  A    between atoms: _52  and  _54
REMARK   27  A    between atoms: _54  and  _55
REMARK   28  A    between atoms: _54  and  _57
REMARK   29  A    between atoms: _60  and  _62
REMARK   30  A    between atoms: _62  and  _63
REMARK   31  A    between atoms: _62  and  _65
REMARK   32  A    between atoms: _65  and  _66
REMARK   33  A    between atoms: _71  and  _73
REMARK   34  A    between atoms: _73  and  _74
REMARK   35  A    between atoms: _73  and  _76
REMARK   36  A    between atoms: _76  and  _77
REMARK   37  A    between atoms: _80  and  _82
REMARK   38  A    between atoms: _82  and  _83
REMARK   39  A    between atoms: _82  and  _85
REMARK   40  A    between atoms: _85  and  _86
REMARK   41  A    between atoms: _92  and  _94
REMARK   42  A    between atoms: _94  and  _95
REMARK   43  A    between atoms: _94  and  _97
REMARK   44  A    between atoms: _97  and  _98
REMARK   45  A    between atoms: _98  and  _99
REMARK   46  A    between atoms: _99  and  _100
REMARK   47  A    between atoms: _100  and  _101
REMARK   48  A    between atoms: _105  and  _107
REMARK   49  A    between atoms: _107  and  _108
REMARK   50  A    between atoms: _107  and  _110
REMARK   51  A    between atoms: _110  and  _111
REMARK   52  A    between atoms: _116  and  _118
REMARK   53  A    between atoms: _118  and  _119
REMARK   54  A    between atoms: _118  and  _121
REMARK   55  A    between atoms: _121  and  _122
REMARK   56  A    between atoms: _125  and  _127
REMARK   57  A    between atoms: _127  and  _128
REMARK   58  A    between atoms: _127  and  _130
REMARK   59  A    between atoms: _130  and  _131
REMARK   60  A    between atoms: _134  and  _136
REMARK   61  A    between atoms: _136  and  _137
REMARK   62  A    between atoms: _136  and  _139
REMARK   63  A    between atoms: _139  and  _140
REMARK   64  A    between atoms: _143  and  _145
REMARK   65  A    between atoms: _145  and  _146
REMARK   66  A    between atoms: _145  and  _148
REMARK   67  A    between atoms: _150  and  _152
REMARK   68  A    between atoms: _152  and  _153
REMARK   69  A    between atoms: _152  and  _155
REMARK   70  A    between atoms: _155  and  _156
REMARK   71  A    between atoms: _156  and  _157
REMARK   72  A    between atoms: _157  and  _158
REMARK   73  A    between atoms: _167  and  _169
REMARK   74  A    between atoms: _169  and  _170
REMARK   75  A    between atoms: _169  and  _172
REMARK   76  A    between atoms: _172  and  _173
REMARK   77  A    between atoms: _173  and  _174
REMARK   78  A    between atoms: _174  and  _175
REMARK   79  A    between atoms: _175  and  _176
REMARK   80  A    between atoms: _180  and  _182
REMARK   81  A    between atoms: _182  and  _183
REMARK   82  A    between atoms: _182  and  _185
REMARK   83  A    between atoms: _185  and  _186
REMARK   84  A    between atoms: _191  and  _193
REMARK   85  A    between atoms: _193  and  _194
REMARK   86  A    between atoms: _193  and  _196
REMARK   87  A    between atoms: _196  and  _197
REMARK   88  A    between atoms: _200  and  _202
REMARK   89  A    between atoms: _202  and  _203
REMARK   90  A    between atoms: _206  and  _208
REMARK   91  A    between atoms: _208  and  _209
REMARK   92  A    between atoms: _208  and  _211
REMARK   93  A    between atoms: _214  and  _216
REMARK   94  A    between atoms: _216  and  _217
REMARK   95  A    between atoms: _216  and  _219
REMARK   96  A    between atoms: _219  and  _220
REMARK   97  A    between atoms: _225  and  _227
REMARK   98  A    between atoms: _227  and  _228
REMARK   99  A    between atoms: _227  and  _230
REMARK  100  A    between atoms: _230  and  _231
REMARK  101  A    between atoms: _237  and  _239
REMARK  102  A    between atoms: _239  and  _240
REMARK  103  A    between atoms: _239  and  _242
REMARK  104  A    between atoms: _242  and  _243
REMARK  105  A    between atoms: _246  and  _248
REMARK  106  A    between atoms: _248  and  _249
REMARK  107  A    between atoms: _252  and  _254
REMARK  108  A    between atoms: _254  and  _255
REMARK  109  A    between atoms: _254  and  _257
REMARK  110  A    between atoms: _257  and  _258
REMARK  111  A    between atoms: _260  and  _262
REMARK  112  A    between atoms: _262  and  _263
REMARK  113  A    between atoms: _262  and  _265
REMARK  114  A    between atoms: _269  and  _271
REMARK  115  A    between atoms: _271  and  _272
REMARK  116  A    between atoms: _271  and  _274
REMARK  117  A    between atoms: _274  and  _275
REMARK  118  A    between atoms: _275  and  _276
REMARK  119  A    between atoms: _276  and  _277
REMARK  120  A    between atoms: _277  and  _278
REMARK  121  A    between atoms: _282  and  _284
REMARK  122  A    between atoms: _284  and  _285
REMARK  123  A    between atoms: _284  and  _287
REMARK  124  A    between atoms: _287  and  _288
REMARK  125  A    between atoms: _294  and  _296
REMARK  126  A    between atoms: _296  and  _297
REMARK  127  A    between atoms: _296  and  _299
REMARK  128  A    between atoms: _299  and  _300
REMARK  129  A    between atoms: _300  and  _301
REMARK  130  A    between atoms: _306  and  _308
REMARK  131  A    between atoms: _308  and  _309
REMARK  132  A    between atoms: _308  and  _311
REMARK  133  A    between atoms: _311  and  _312
REMARK                            x       y       z     vdW  Elec       q    Type
REMARK                         _______ _______ _______ _____ _____    ______ ____
ROOT
ATOM      1  O   HOH     1      27.798  43.825   6.058  0.00  0.00    +0.000 OA
ENDROOT
TORSDOF 0
REMARK  Name = ../refined-set-2016/3djx/3djx_pocket.pdb
REMARK  133 active torsions:
REMARK  status: ('A' for Active; 'I' for Inactive)
REMARK    1  A    between atoms: _1  and  _3
REMARK    2  A    between atoms: _3  and  _4
REMARK    3  A    between atoms: _3  and  _6
REMARK    4  A    between atoms: _6  and  _7
REMARK    5  A    between atoms: _7  and  _8
REMARK    6  A    between atoms: _10  and  _12
REMARK    7  A    between atoms: _12  and  _13
REMARK    8  A    between atoms: _12  and  _15
REMARK    9  A    between atoms: _15  and  _16
REMARK   10  A    between atoms: _16  and  _17
REMARK   11  A    between atoms: _19  and  _21
REMARK   12  A    between atoms: _21  and  _22
REMARK   13  A    between atoms: _21  and  _24
REMARK   14  A    between atoms: _24  and  _25
REMARK   15  A    between atoms: _25  and  _26
REMARK   16  A    between atoms: _26  and  _27
REMARK   17  A    between atoms: _27  and  _28
REMARK   18  A    between atoms: _32  and  _34
REMARK   19  A    between atoms: _34  and  _35
REMARK   20  A    between atoms: _34  and  _37
REMARK   21  A    between atoms: _37  and  _38
REMARK   22  A    between atoms: _38  and  _39
REMARK   23  A    between atoms: _39  and  _40
REMARK   24  A    between atoms: _40  and  _41
REMARK   25  A    between atoms: _46  and  _47
REMARK   26  A    between atoms: _52  and  _54
REMARK   27  A    between atoms: _54  and  _55
REMARK   28  A    between atoms: _54  and  _57
REMARK   29  A    between atoms: _60  and  _62
REMARK   30  A    between atoms: _62  and  _63
REMARK   31  A    between atoms: _62  and  _65
REMARK   32  A    between atoms: _65  and  _66
REMARK   33  A    between atoms: _71  and  _73
REMARK   34  A    between atoms: _73  and  _74
REMARK   35  A    between atoms: _73  and  _76
REMARK   36  A    between atoms: _76  and  _77
REMARK   37  A    between atoms: _80  and  _82
REMARK   38  A    between atoms: _82  and  _83
REMARK   39  A    between atoms: _82  and  _85
REMARK   40  A    between atoms: _85  and  _86
REMARK   41  A    between atoms: _92  and  _94
REMARK   42  A    between atoms: _94  and  _95
REMARK   43  A    between atoms: _94  and  _97
REMARK   44  A    between atoms: _97  and  _98
REMARK   45  A    between atoms: _98  and  _99
REMARK   46  A    between atoms: _99  and  _100
REMARK   47  A    between atoms: _100  and  _101
REMARK   48  A    between atoms: _105  and  _107
REMARK   49  A    between atoms: _107  and  _108
REMARK   50  A    between atoms: _107  and  _110
REMARK   51  A    between atoms: _110  and  _111
REMARK   52  A    between atoms: _116  and  _118
REMARK   53  A    between atoms: _118  and  _119
REMARK   54  A    between atoms: _118  and  _121
REMARK   55  A    between atoms: _121  and  _122
REMARK   56  A    between atoms: _125  and  _127
REMARK   57  A    between atoms: _127  and  _128
REMARK   58  A    between atoms: _127  and  _130
REMARK   59  A    between atoms: _130  and  _131
REMARK   60  A    between atoms: _134  and  _136
REMARK   61  A    between atoms: _136  and  _137
REMARK   62  A    between atoms: _136  and  _139
REMARK   63  A    between atoms: _139  and  _140
REMARK   64  A    between atoms: _143  and  _145
REMARK   65  A    between atoms: _145  and  _146
REMARK   66  A    between atoms: _145  and  _148
REMARK   67  A    between atoms: _150  and  _152
REMARK   68  A    between atoms: _152  and  _153
REMARK   69  A    between atoms: _152  and  _155
REMARK   70  A    between atoms: _155  and  _156
REMARK   71  A    between atoms: _156  and  _157
REMARK   72  A    between atoms: _157  and  _158
REMARK   73  A    between atoms: _167  and  _169
REMARK   74  A    between atoms: _169  and  _170
REMARK   75  A    between atoms: _169  and  _172
REMARK   76  A    between atoms: _172  and  _173
REMARK   77  A    between atoms: _173  and  _174
REMARK   78  A    between atoms: _174  and  _175
REMARK   79  A    between atoms: _175  and  _176
REMARK   80  A    between atoms: _180  and  _182
REMARK   81  A    between atoms: _182  and  _183
REMARK   82  A    between atoms: _182  and  _185
REMARK   83  A    between atoms: _185  and  _186
REMARK   84  A    between atoms: _191  and  _193
REMARK   85  A    between atoms: _193  and  _194
REMARK   86  A    between atoms: _193  and  _196
REMARK   87  A    between atoms: _196  and  _197
REMARK   88  A    between atoms: _200  and  _202
REMARK   89  A    between atoms: _202  and  _203
REMARK   90  A    between atoms: _206  and  _208
REMARK   91  A    between atoms: _208  and  _209
REMARK   92  A    between atoms: _208  and  _211
REMARK   93  A    between atoms: _214  and  _216
REMARK   94  A    between atoms: _216  and  _217
REMARK   95  A    between atoms: _216  and  _219
REMARK   96  A    between atoms: _219  and  _220
REMARK   97  A    between atoms: _225  and  _227
REMARK   98  A    between atoms: _227  and  _228
REMARK   99  A    between atoms: _227  and  _230
REMARK  100  A    between atoms: _230  and  _231
REMARK  101  A    between atoms: _237  and  _239
REMARK  102  A    between atoms: _239  and  _240
REMARK  103  A    between atoms: _239  and  _242
REMARK  104  A    between atoms: _242  and  _243
REMARK  105  A    between atoms: _246  and  _248
REMARK  106  A    between atoms: _248  and  _249
REMARK  107  A    between atoms: _252  and  _254
REMARK  108  A    between atoms: _254  and  _255
REMARK  109  A    between atoms: _254  and  _257
REMARK  110  A    between atoms: _257  and  _258
REMARK  111  A    between atoms: _260  and  _262
REMARK  112  A    between atoms: _262  and  _263
REMARK  113  A    between atoms: _262  and  _265
REMARK  114  A    between atoms: _269  and  _271
REMARK  115  A    between atoms: _271  and  _272
REMARK  116  A    between atoms: _271  and  _274
REMARK  117  A    between atoms: _274  and  _275
REMARK  118  A    between atoms: _275  and  _276
REMARK  119  A    between atoms: _276  and  _277
REMARK  120  A    between atoms: _277  and  _278
REMARK  121  A    between atoms: _282  and  _284
REMARK  122  A    between atoms: _284  and  _285
REMARK  123  A    between atoms: _284  and  _287
REMARK  124  A    between atoms: _287  and  _288
REMARK  125  A    between atoms: _294  and  _296
REMARK  126  A    between atoms: _296  and  _297
REMARK  127  A    between atoms: _296  and  _299
REMARK  128  A    between atoms: _299  and  _300
REMARK  129  A    between atoms: _300  and  _301
REMARK  130  A    between atoms: _306  and  _308
REMARK  131  A    between atoms: _308  and  _309
REMARK  132  A    between atoms: _308  and  _311
REMARK  133  A    between atoms: _311  and  _312
REMARK                            x       y       z     vdW  Elec       q    Type
REMARK                         _______ _______ _______ _____ _____    ______ ____
ROOT
ATOM      1  O   HOH     1      25.139  44.677   9.494  0.00  0.00    +0.000 OA
ENDROOT
TORSDOF 0
REMARK  Name = ../refined-set-2016/3djx/3djx_pocket.pdb
REMARK  133 active torsions:
REMARK  status: ('A' for Active; 'I' for Inactive)
REMARK    1  A    between atoms: _1  and  _3
REMARK    2  A    between atoms: _3  and  _4
REMARK    3  A    between atoms: _3  and  _6
REMARK    4  A    between atoms: _6  and  _7
REMARK    5  A    between atoms: _7  and  _8
REMARK    6  A    between atoms: _10  and  _12
REMARK    7  A    between atoms: _12  and  _13
REMARK    8  A    between atoms: _12  and  _15
REMARK    9  A    between atoms: _15  and  _16
REMARK   10  A    between atoms: _16  and  _17
REMARK   11  A    between atoms: _19  and  _21
REMARK   12  A    between atoms: _21  and  _22
REMARK   13  A    between atoms: _21  and  _24
REMARK   14  A    between atoms: _24  and  _25
REMARK   15  A    between atoms: _25  and  _26
REMARK   16  A    between atoms: _26  and  _27
REMARK   17  A    between atoms: _27  and  _28
REMARK   18  A    between atoms: _32  and  _34
REMARK   19  A    between atoms: _34  and  _35
REMARK   20  A    between atoms: _34  and  _37
REMARK   21  A    between atoms: _37  and  _38
REMARK   22  A    between atoms: _38  and  _39
REMARK   23  A    between atoms: _39  and  _40
REMARK   24  A    between atoms: _40  and  _41
REMARK   25  A    between atoms: _46  and  _47
REMARK   26  A    between atoms: _52  and  _54
REMARK   27  A    between atoms: _54  and  _55
REMARK   28  A    between atoms: _54  and  _57
REMARK   29  A    between atoms: _60  and  _62
REMARK   30  A    between atoms: _62  and  _63
REMARK   31  A    between atoms: _62  and  _65
REMARK   32  A    between atoms: _65  and  _66
REMARK   33  A    between atoms: _71  and  _73
REMARK   34  A    between atoms: _73  and  _74
REMARK   35  A    between atoms: _73  and  _76
REMARK   36  A    between atoms: _76  and  _77
REMARK   37  A    between atoms: _80  and  _82
REMARK   38  A    between atoms: _82  and  _83
REMARK   39  A    between atoms: _82  and  _85
REMARK   40  A    between atoms: _85  and  _86
REMARK   41  A    between atoms: _92  and  _94
REMARK   42  A    between atoms: _94  and  _95
REMARK   43  A    between atoms: _94  and  _97
REMARK   44  A    between atoms: _97  and  _98
REMARK   45  A    between atoms: _98  and  _99
REMARK   46  A    between atoms: _99  and  _100
REMARK   47  A    between atoms: _100  and  _101
REMARK   48  A    between atoms: _105  and  _107
REMARK   49  A    between atoms: _107  and  _108
REMARK   50  A    between atoms: _107  and  _110
REMARK   51  A    between atoms: _110  and  _111
REMARK   52  A    between atoms: _116  and  _118
REMARK   53  A    between atoms: _118  and  _119
REMARK   54  A    between atoms: _118  and  _121
REMARK   55  A    between atoms: _121  and  _122
REMARK   56  A    between atoms: _125  and  _127
REMARK   57  A    between atoms: _127  and  _128
REMARK   58  A    between atoms: _127  and  _130
REMARK   59  A    between atoms: _130  and  _131
REMARK   60  A    between atoms: _134  and  _136
REMARK   61  A    between atoms: _136  and  _137
REMARK   62  A    between atoms: _136  and  _139
REMARK   63  A    between atoms: _139  and  _140
REMARK   64  A    between atoms: _143  and  _145
REMARK   65  A    between atoms: _145  and  _146
REMARK   66  A    between atoms: _145  and  _148
REMARK   67  A    between atoms: _150  and  _152
REMARK   68  A    between atoms: _152  and  _153
REMARK   69  A    between atoms: _152  and  _155
REMARK   70  A    between atoms: _155  and  _156
REMARK   71  A    between atoms: _156  and  _157
REMARK   72  A    between atoms: _157  and  _158
REMARK   73  A    between atoms: _167  and  _169
REMARK   74  A    between atoms: _169  and  _170
REMARK   75  A    between atoms: _169  and  _172
REMARK   76  A    between atoms: _172  and  _173
REMARK   77  A    between atoms: _173  and  _174
REMARK   78  A    between atoms: _174  and  _175
REMARK   79  A    between atoms: _175  and  _176
REMARK   80  A    between atoms: _180  and  _182
REMARK   81  A    between atoms: _182  and  _183
REMARK   82  A    between atoms: _182  and  _185
REMARK   83  A    between atoms: _185  and  _186
REMARK   84  A    between atoms: _191  and  _193
REMARK   85  A    between atoms: _193  and  _194
REMARK   86  A    between atoms: _193  and  _196
REMARK   87  A    between atoms: _196  and  _197
REMARK   88  A    between atoms: _200  and  _202
REMARK   89  A    between atoms: _202  and  _203
REMARK   90  A    between atoms: _206  and  _208
REMARK   91  A    between atoms: _208  and  _209
REMARK   92  A    between atoms: _208  and  _211
REMARK   93  A    between atoms: _214  and  _216
REMARK   94  A    between atoms: _216  and  _217
REMARK   95  A    between atoms: _216  and  _219
REMARK   96  A    between atoms: _219  and  _220
REMARK   97  A    between atoms: _225  and  _227
REMARK   98  A    between atoms: _227  and  _228
REMARK   99  A    between atoms: _227  and  _230
REMARK  100  A    between atoms: _230  and  _231
REMARK  101  A    between atoms: _237  and  _239
REMARK  102  A    between atoms: _239  and  _240
REMARK  103  A    between atoms: _239  and  _242
REMARK  104  A    between atoms: _242  and  _243
REMARK  105  A    between atoms: _246  and  _248
REMARK  106  A    between atoms: _248  and  _249
REMARK  107  A    between atoms: _252  and  _254
REMARK  108  A    between atoms: _254  and  _255
REMARK  109  A    between atoms: _254  and  _257
REMARK  110  A    between atoms: _257  and  _258
REMARK  111  A    between atoms: _260  and  _262
REMARK  112  A    between atoms: _262  and  _263
REMARK  113  A    between atoms: _262  and  _265
REMARK  114  A    between atoms: _269  and  _271
REMARK  115  A    between atoms: _271  and  _272
REMARK  116  A    between atoms: _271  and  _274
REMARK  117  A    between atoms: _274  and  _275
REMARK  118  A    between atoms: _275  and  _276
REMARK  119  A    between atoms: _276  and  _277
REMARK  120  A    between atoms: _277  and  _278
REMARK  121  A    between atoms: _282  and  _284
REMARK  122  A    between atoms: _284  and  _285
REMARK  123  A    between atoms: _284  and  _287
REMARK  124  A    between atoms: _287  and  _288
REMARK  125  A    between atoms: _294  and  _296
REMARK  126  A    between atoms: _296  and  _297
REMARK  127  A    between atoms: _296  and  _299
REMARK  128  A    between atoms: _299  and  _300
REMARK  129  A    between atoms: _300  and  _301
REMARK  130  A    between atoms: _306  and  _308
REMARK  131  A    between atoms: _308  and  _309
REMARK  132  A    between atoms: _308  and  _311
REMARK  133  A    between atoms: _311  and  _312
REMARK                            x       y       z     vdW  Elec       q    Type
REMARK                         _______ _______ _______ _____ _____    ______ ____
ROOT
ATOM      1  O   HOH     1      33.886  42.896   7.287  0.00  0.00    +0.000 OA
ENDROOT
TORSDOF 0
REMARK  Name = ../refined-set-2016/3djx/3djx_pocket.pdb
REMARK  133 active torsions:
REMARK  status: ('A' for Active; 'I' for Inactive)
REMARK    1  A    between atoms: _1  and  _3
REMARK    2  A    between atoms: _3  and  _4
REMARK    3  A    between atoms: _3  and  _6
REMARK    4  A    between atoms: _6  and  _7
REMARK    5  A    between atoms: _7  and  _8
REMARK    6  A    between atoms: _10  and  _12
REMARK    7  A    between atoms: _12  and  _13
REMARK    8  A    between atoms: _12  and  _15
REMARK    9  A    between atoms: _15  and  _16
REMARK   10  A    between atoms: _16  and  _17
REMARK   11  A    between atoms: _19  and  _21
REMARK   12  A    between atoms: _21  and  _22
REMARK   13  A    between atoms: _21  and  _24
REMARK   14  A    between atoms: _24  and  _25
REMARK   15  A    between atoms: _25  and  _26
REMARK   16  A    between atoms: _26  and  _27
REMARK   17  A    between atoms: _27  and  _28
REMARK   18  A    between atoms: _32  and  _34
REMARK   19  A    between atoms: _34  and  _35
REMARK   20  A    between atoms: _34  and  _37
REMARK   21  A    between atoms: _37  and  _38
REMARK   22  A    between atoms: _38  and  _39
REMARK   23  A    between atoms: _39  and  _40
REMARK   24  A    between atoms: _40  and  _41
REMARK   25  A    between atoms: _46  and  _47
REMARK   26  A    between atoms: _52  and  _54
REMARK   27  A    between atoms: _54  and  _55
REMARK   28  A    between atoms: _54  and  _57
REMARK   29  A    between atoms: _60  and  _62
REMARK   30  A    between atoms: _62  and  _63
REMARK   31  A    between atoms: _62  and  _65
REMARK   32  A    between atoms: _65  and  _66
REMARK   33  A    between atoms: _71  and  _73
REMARK   34  A    between atoms: _73  and  _74
REMARK   35  A    between atoms: _73  and  _76
REMARK   36  A    between atoms: _76  and  _77
REMARK   37  A    between atoms: _80  and  _82
REMARK   38  A    between atoms: _82  and  _83
REMARK   39  A    between atoms: _82  and  _85
REMARK   40  A    between atoms: _85  and  _86
REMARK   41  A    between atoms: _92  and  _94
REMARK   42  A    between atoms: _94  and  _95
REMARK   43  A    between atoms: _94  and  _97
REMARK   44  A    between atoms: _97  and  _98
REMARK   45  A    between atoms: _98  and  _99
REMARK   46  A    between atoms: _99  and  _100
REMARK   47  A    between atoms: _100  and  _101
REMARK   48  A    between atoms: _105  and  _107
REMARK   49  A    between atoms: _107  and  _108
REMARK   50  A    between atoms: _107  and  _110
REMARK   51  A    between atoms: _110  and  _111
REMARK   52  A    between atoms: _116  and  _118
REMARK   53  A    between atoms: _118  and  _119
REMARK   54  A    between atoms: _118  and  _121
REMARK   55  A    between atoms: _121  and  _122
REMARK   56  A    between atoms: _125  and  _127
REMARK   57  A    between atoms: _127  and  _128
REMARK   58  A    between atoms: _127  and  _130
REMARK   59  A    between atoms: _130  and  _131
REMARK   60  A    between atoms: _134  and  _136
REMARK   61  A    between atoms: _136  and  _137
REMARK   62  A    between atoms: _136  and  _139
REMARK   63  A    between atoms: _139  and  _140
REMARK   64  A    between atoms: _143  and  _145
REMARK   65  A    between atoms: _145  and  _146
REMARK   66  A    between atoms: _145  and  _148
REMARK   67  A    between atoms: _150  and  _152
REMARK   68  A    between atoms: _152  and  _153
REMARK   69  A    between atoms: _152  and  _155
REMARK   70  A    between atoms: _155  and  _156
REMARK   71  A    between atoms: _156  and  _157
REMARK   72  A    between atoms: _157  and  _158
REMARK   73  A    between atoms: _167  and  _169
REMARK   74  A    between atoms: _169  and  _170
REMARK   75  A    between atoms: _169  and  _172
REMARK   76  A    between atoms: _172  and  _173
REMARK   77  A    between atoms: _173  and  _174
REMARK   78  A    between atoms: _174  and  _175
REMARK   79  A    between atoms: _175  and  _176
REMARK   80  A    between atoms: _180  and  _182
REMARK   81  A    between atoms: _182  and  _183
REMARK   82  A    between atoms: _182  and  _185
REMARK   83  A    between atoms: _185  and  _186
REMARK   84  A    between atoms: _191  and  _193
REMARK   85  A    between atoms: _193  and  _194
REMARK   86  A    between atoms: _193  and  _196
REMARK   87  A    between atoms: _196  and  _197
REMARK   88  A    between atoms: _200  and  _202
REMARK   89  A    between atoms: _202  and  _203
REMARK   90  A    between atoms: _206  and  _208
REMARK   91  A    between atoms: _208  and  _209
REMARK   92  A    between atoms: _208  and  _211
REMARK   93  A    between atoms: _214  and  _216
REMARK   94  A    between atoms: _216  and  _217
REMARK   95  A    between atoms: _216  and  _219
REMARK   96  A    between atoms: _219  and  _220
REMARK   97  A    between atoms: _225  and  _227
REMARK   98  A    between atoms: _227  and  _228
REMARK   99  A    between atoms: _227  and  _230
REMARK  100  A    between atoms: _230  and  _231
REMARK  101  A    between atoms: _237  and  _239
REMARK  102  A    between atoms: _239  and  _240
REMARK  103  A    between atoms: _239  and  _242
REMARK  104  A    between atoms: _242  and  _243
REMARK  105  A    between atoms: _246  and  _248
REMARK  106  A    between atoms: _248  and  _249
REMARK  107  A    between atoms: _252  and  _254
REMARK  108  A    between atoms: _254  and  _255
REMARK  109  A    between atoms: _254  and  _257
REMARK  110  A    between atoms: _257  and  _258
REMARK  111  A    between atoms: _260  and  _262
REMARK  112  A    between atoms: _262  and  _263
REMARK  113  A    between atoms: _262  and  _265
REMARK  114  A    between atoms: _269  and  _271
REMARK  115  A    between atoms: _271  and  _272
REMARK  116  A    between atoms: _271  and  _274
REMARK  117  A    between atoms: _274  and  _275
REMARK  118  A    between atoms: _275  and  _276
REMARK  119  A    between atoms: _276  and  _277
REMARK  120  A    between atoms: _277  and  _278
REMARK  121  A    between atoms: _282  and  _284
REMARK  122  A    between atoms: _284  and  _285
REMARK  123  A    between atoms: _284  and  _287
REMARK  124  A    between atoms: _287  and  _288
REMARK  125  A    between atoms: _294  and  _296
REMARK  126  A    between atoms: _296  and  _297
REMARK  127  A    between atoms: _296  and  _299
REMARK  128  A    between atoms: _299  and  _300
REMARK  129  A    between atoms: _300  and  _301
REMARK  130  A    between atoms: _306  and  _308
REMARK  131  A    between atoms: _308  and  _309
REMARK  132  A    between atoms: _308  and  _311
REMARK  133  A    between atoms: _311  and  _312
REMARK                            x       y       z     vdW  Elec       q    Type
REMARK                         _______ _______ _______ _____ _____    ______ ____
ROOT
ATOM      1  O   HOH     1      34.108  36.168   9.318  0.00  0.00    +0.000 OA
ENDROOT
TORSDOF 0
REMARK  Name = ../refined-set-2016/3djx/3djx_pocket.pdb
REMARK  133 active torsions:
REMARK  status: ('A' for Active; 'I' for Inactive)
REMARK    1  A    between atoms: _1  and  _3
REMARK    2  A    between atoms: _3  and  _4
REMARK    3  A    between atoms: _3  and  _6
REMARK    4  A    between atoms: _6  and  _7
REMARK    5  A    between atoms: _7  and  _8
REMARK    6  A    between atoms: _10  and  _12
REMARK    7  A    between atoms: _12  and  _13
REMARK    8  A    between atoms: _12  and  _15
REMARK    9  A    between atoms: _15  and  _16
REMARK   10  A    between atoms: _16  and  _17
REMARK   11  A    between atoms: _19  and  _21
REMARK   12  A    between atoms: _21  and  _22
REMARK   13  A    between atoms: _21  and  _24
REMARK   14  A    between atoms: _24  and  _25
REMARK   15  A    between atoms: _25  and  _26
REMARK   16  A    between atoms: _26  and  _27
REMARK   17  A    between atoms: _27  and  _28
REMARK   18  A    between atoms: _32  and  _34
REMARK   19  A    between atoms: _34  and  _35
REMARK   20  A    between atoms: _34  and  _37
REMARK   21  A    between atoms: _37  and  _38
REMARK   22  A    between atoms: _38  and  _39
REMARK   23  A    between atoms: _39  and  _40
REMARK   24  A    between atoms: _40  and  _41
REMARK   25  A    between atoms: _46  and  _47
REMARK   26  A    between atoms: _52  and  _54
REMARK   27  A    between atoms: _54  and  _55
REMARK   28  A    between atoms: _54  and  _57
REMARK   29  A    between atoms: _60  and  _62
REMARK   30  A    between atoms: _62  and  _63
REMARK   31  A    between atoms: _62  and  _65
REMARK   32  A    between atoms: _65  and  _66
REMARK   33  A    between atoms: _71  and  _73
REMARK   34  A    between atoms: _73  and  _74
REMARK   35  A    between atoms: _73  and  _76
REMARK   36  A    between atoms: _76  and  _77
REMARK   37  A    between atoms: _80  and  _82
REMARK   38  A    between atoms: _82  and  _83
REMARK   39  A    between atoms: _82  and  _85
REMARK   40  A    between atoms: _85  and  _86
REMARK   41  A    between atoms: _92  and  _94
REMARK   42  A    between atoms: _94  and  _95
REMARK   43  A    between atoms: _94  and  _97
REMARK   44  A    between atoms: _97  and  _98
REMARK   45  A    between atoms: _98  and  _99
REMARK   46  A    between atoms: _99  and  _100
REMARK   47  A    between atoms: _100  and  _101
REMARK   48  A    between atoms: _105  and  _107
REMARK   49  A    between atoms: _107  and  _108
REMARK   50  A    between atoms: _107  and  _110
REMARK   51  A    between atoms: _110  and  _111
REMARK   52  A    between atoms: _116  and  _118
REMARK   53  A    between atoms: _118  and  _119
REMARK   54  A    between atoms: _118  and  _121
REMARK   55  A    between atoms: _121  and  _122
REMARK   56  A    between atoms: _125  and  _127
REMARK   57  A    between atoms: _127  and  _128
REMARK   58  A    between atoms: _127  and  _130
REMARK   59  A    between atoms: _130  and  _131
REMARK   60  A    between atoms: _134  and  _136
REMARK   61  A    between atoms: _136  and  _137
REMARK   62  A    between atoms: _136  and  _139
REMARK   63  A    between atoms: _139  and  _140
REMARK   64  A    between atoms: _143  and  _145
REMARK   65  A    between atoms: _145  and  _146
REMARK   66  A    between atoms: _145  and  _148
REMARK   67  A    between atoms: _150  and  _152
REMARK   68  A    between atoms: _152  and  _153
REMARK   69  A    between atoms: _152  and  _155
REMARK   70  A    between atoms: _155  and  _156
REMARK   71  A    between atoms: _156  and  _157
REMARK   72  A    between atoms: _157  and  _158
REMARK   73  A    between atoms: _167  and  _169
REMARK   74  A    between atoms: _169  and  _170
REMARK   75  A    between atoms: _169  and  _172
REMARK   76  A    between atoms: _172  and  _173
REMARK   77  A    between atoms: _173  and  _174
REMARK   78  A    between atoms: _174  and  _175
REMARK   79  A    between atoms: _175  and  _176
REMARK   80  A    between atoms: _180  and  _182
REMARK   81  A    between atoms: _182  and  _183
REMARK   82  A    between atoms: _182  and  _185
REMARK   83  A    between atoms: _185  and  _186
REMARK   84  A    between atoms: _191  and  _193
REMARK   85  A    between atoms: _193  and  _194
REMARK   86  A    between atoms: _193  and  _196
REMARK   87  A    between atoms: _196  and  _197
REMARK   88  A    between atoms: _200  and  _202
REMARK   89  A    between atoms: _202  and  _203
REMARK   90  A    between atoms: _206  and  _208
REMARK   91  A    between atoms: _208  and  _209
REMARK   92  A    between atoms: _208  and  _211
REMARK   93  A    between atoms: _214  and  _216
REMARK   94  A    between atoms: _216  and  _217
REMARK   95  A    between atoms: _216  and  _219
REMARK   96  A    between atoms: _219  and  _220
REMARK   97  A    between atoms: _225  and  _227
REMARK   98  A    between atoms: _227  and  _228
REMARK   99  A    between atoms: _227  and  _230
REMARK  100  A    between atoms: _230  and  _231
REMARK  101  A    between atoms: _237  and  _239
REMARK  102  A    between atoms: _239  and  _240
REMARK  103  A    between atoms: _239  and  _242
REMARK  104  A    between atoms: _242  and  _243
REMARK  105  A    between atoms: _246  and  _248
REMARK  106  A    between atoms: _248  and  _249
REMARK  107  A    between atoms: _252  and  _254
REMARK  108  A    between atoms: _254  and  _255
REMARK  109  A    between atoms: _254  and  _257
REMARK  110  A    between atoms: _257  and  _258
REMARK  111  A    between atoms: _260  and  _262
REMARK  112  A    between atoms: _262  and  _263
REMARK  113  A    between atoms: _262  and  _265
REMARK  114  A    between atoms: _269  and  _271
REMARK  115  A    between atoms: _271  and  _272
REMARK  116  A    between atoms: _271  and  _274
REMARK  117  A    between atoms: _274  and  _275
REMARK  118  A    between atoms: _275  and  _276
REMARK  119  A    between atoms: _276  and  _277
REMARK  120  A    between atoms: _277  and  _278
REMARK  121  A    between atoms: _282  and  _284
REMARK  122  A    between atoms: _284  and  _285
REMARK  123  A    between atoms: _284  and  _287
REMARK  124  A    between atoms: _287  and  _288
REMARK  125  A    between atoms: _294  and  _296
REMARK  126  A    between atoms: _296  and  _297
REMARK  127  A    between atoms: _296  and  _299
REMARK  128  A    between atoms: _299  and  _300
REMARK  129  A    between atoms: _300  and  _301
REMARK  130  A    between atoms: _306  and  _308
REMARK  131  A    between atoms: _308  and  _309
REMARK  132  A    between atoms: _308  and  _311
REMARK  133  A    between atoms: _311  and  _312
REMARK                            x       y       z     vdW  Elec       q    Type
REMARK                         _______ _______ _______ _____ _____    ______ ____
ROOT
ATOM      1  O   HOH     1      35.292  33.392  10.350  0.00  0.00    +0.000 OA
ENDROOT
TORSDOF 0
REMARK  Name = ../refined-set-2016/3djx/3djx_pocket.pdb
REMARK  133 active torsions:
REMARK  status: ('A' for Active; 'I' for Inactive)
REMARK    1  A    between atoms: _1  and  _3
REMARK    2  A    between atoms: _3  and  _4
REMARK    3  A    between atoms: _3  and  _6
REMARK    4  A    between atoms: _6  and  _7
REMARK    5  A    between atoms: _7  and  _8
REMARK    6  A    between atoms: _10  and  _12
REMARK    7  A    between atoms: _12  and  _13
REMARK    8  A    between atoms: _12  and  _15
REMARK    9  A    between atoms: _15  and  _16
REMARK   10  A    between atoms: _16  and  _17
REMARK   11  A    between atoms: _19  and  _21
REMARK   12  A    between atoms: _21  and  _22
REMARK   13  A    between atoms: _21  and  _24
REMARK   14  A    between atoms: _24  and  _25
REMARK   15  A    between atoms: _25  and  _26
REMARK   16  A    between atoms: _26  and  _27
REMARK   17  A    between atoms: _27  and  _28
REMARK   18  A    between atoms: _32  and  _34
REMARK   19  A    between atoms: _34  and  _35
REMARK   20  A    between atoms: _34  and  _37
REMARK   21  A    between atoms: _37  and  _38
REMARK   22  A    between atoms: _38  and  _39
REMARK   23  A    between atoms: _39  and  _40
REMARK   24  A    between atoms: _40  and  _41
REMARK   25  A    between atoms: _46  and  _47
REMARK   26  A    between atoms: _52  and  _54
REMARK   27  A    between atoms: _54  and  _55
REMARK   28  A    between atoms: _54  and  _57
REMARK   29  A    between atoms: _60  and  _62
REMARK   30  A    between atoms: _62  and  _63
REMARK   31  A    between atoms: _62  and  _65
REMARK   32  A    between atoms: _65  and  _66
REMARK   33  A    between atoms: _71  and  _73
REMARK   34  A    between atoms: _73  and  _74
REMARK   35  A    between atoms: _73  and  _76
REMARK   36  A    between atoms: _76  and  _77
REMARK   37  A    between atoms: _80  and  _82
REMARK   38  A    between atoms: _82  and  _83
REMARK   39  A    between atoms: _82  and  _85
REMARK   40  A    between atoms: _85  and  _86
REMARK   41  A    between atoms: _92  and  _94
REMARK   42  A    between atoms: _94  and  _95
REMARK   43  A    between atoms: _94  and  _97
REMARK   44  A    between atoms: _97  and  _98
REMARK   45  A    between atoms: _98  and  _99
REMARK   46  A    between atoms: _99  and  _100
REMARK   47  A    between atoms: _100  and  _101
REMARK   48  A    between atoms: _105  and  _107
REMARK   49  A    between atoms: _107  and  _108
REMARK   50  A    between atoms: _107  and  _110
REMARK   51  A    between atoms: _110  and  _111
REMARK   52  A    between atoms: _116  and  _118
REMARK   53  A    between atoms: _118  and  _119
REMARK   54  A    between atoms: _118  and  _121
REMARK   55  A    between atoms: _121  and  _122
REMARK   56  A    between atoms: _125  and  _127
REMARK   57  A    between atoms: _127  and  _128
REMARK   58  A    between atoms: _127  and  _130
REMARK   59  A    between atoms: _130  and  _131
REMARK   60  A    between atoms: _134  and  _136
REMARK   61  A    between atoms: _136  and  _137
REMARK   62  A    between atoms: _136  and  _139
REMARK   63  A    between atoms: _139  and  _140
REMARK   64  A    between atoms: _143  and  _145
REMARK   65  A    between atoms: _145  and  _146
REMARK   66  A    between atoms: _145  and  _148
REMARK   67  A    between atoms: _150  and  _152
REMARK   68  A    between atoms: _152  and  _153
REMARK   69  A    between atoms: _152  and  _155
REMARK   70  A    between atoms: _155  and  _156
REMARK   71  A    between atoms: _156  and  _157
REMARK   72  A    between atoms: _157  and  _158
REMARK   73  A    between atoms: _167  and  _169
REMARK   74  A    between atoms: _169  and  _170
REMARK   75  A    between atoms: _169  and  _172
REMARK   76  A    between atoms: _172  and  _173
REMARK   77  A    between atoms: _173  and  _174
REMARK   78  A    between atoms: _174  and  _175
REMARK   79  A    between atoms: _175  and  _176
REMARK   80  A    between atoms: _180  and  _182
REMARK   81  A    between atoms: _182  and  _183
REMARK   82  A    between atoms: _182  and  _185
REMARK   83  A    between atoms: _185  and  _186
REMARK   84  A    between atoms: _191  and  _193
REMARK   85  A    between atoms: _193  and  _194
REMARK   86  A    between atoms: _193  and  _196
REMARK   87  A    between atoms: _196  and  _197
REMARK   88  A    between atoms: _200  and  _202
REMARK   89  A    between atoms: _202  and  _203
REMARK   90  A    between atoms: _206  and  _208
REMARK   91  A    between atoms: _208  and  _209
REMARK   92  A    between atoms: _208  and  _211
REMARK   93  A    between atoms: _214  and  _216
REMARK   94  A    between atoms: _216  and  _217
REMARK   95  A    between atoms: _216  and  _219
REMARK   96  A    between atoms: _219  and  _220
REMARK   97  A    between atoms: _225  and  _227
REMARK   98  A    between atoms: _227  and  _228
REMARK   99  A    between atoms: _227  and  _230
REMARK  100  A    between atoms: _230  and  _231
REMARK  101  A    between atoms: _237  and  _239
REMARK  102  A    between atoms: _239  and  _240
REMARK  103  A    between atoms: _239  and  _242
REMARK  104  A    between atoms: _242  and  _243
REMARK  105  A    between atoms: _246  and  _248
REMARK  106  A    between atoms: _248  and  _249
REMARK  107  A    between atoms: _252  and  _254
REMARK  108  A    between atoms: _254  and  _255
REMARK  109  A    between atoms: _254  and  _257
REMARK  110  A    between atoms: _257  and  _258
REMARK  111  A    between atoms: _260  and  _262
REMARK  112  A    between atoms: _262  and  _263
REMARK  113  A    between atoms: _262  and  _265
REMARK  114  A    between atoms: _269  and  _271
REMARK  115  A    between atoms: _271  and  _272
REMARK  116  A    between atoms: _271  and  _274
REMARK  117  A    between atoms: _274  and  _275
REMARK  118  A    between atoms: _275  and  _276
REMARK  119  A    between atoms: _276  and  _277
REMARK  120  A    between atoms: _277  and  _278
REMARK  121  A    between atoms: _282  and  _284
REMARK  122  A    between atoms: _284  and  _285
REMARK  123  A    between atoms: _284  and  _287
REMARK  124  A    between atoms: _287  and  _288
REMARK  125  A    between atoms: _294  and  _296
REMARK  126  A    between atoms: _296  and  _297
REMARK  127  A    between atoms: _296  and  _299
REMARK  128  A    between atoms: _299  and  _300
REMARK  129  A    between atoms: _300  and  _301
REMARK  130  A    between atoms: _306  and  _308
REMARK  131  A    between atoms: _308  and  _309
REMARK  132  A    between atoms: _308  and  _311
REMARK  133  A    between atoms: _311  and  _312
REMARK                            x       y       z     vdW  Elec       q    Type
REMARK                         _______ _______ _______ _____ _____    ______ ____
ROOT
ATOM      1  O   HOH     1      32.666  36.546  11.820  0.00  0.00    +0.000 OA
ENDROOT
TORSDOF 0
