REMARK  Name = ../refined-set-2016/3bvb/3bvb_pocket.pdb
REMARK  230 active torsions:
REMARK  status: ('A' for Active; 'I' for Inactive)
REMARK    1  A    between atoms: _1  and  _3
REMARK    2  A    between atoms: _3  and  _4
REMARK    3  A    between atoms: _3  and  _6
REMARK    4  A    between atoms: _6  and  _7
REMARK    5  A    between atoms: _7  and  _8
REMARK    6  A    between atoms: _8  and  _9
REMARK    7  A    between atoms: _18  and  _20
REMARK    8  A    between atoms: _20  and  _21
REMARK    9  A    between atoms: _20  and  _23
REMARK   10  A    between atoms: _23  and  _24
REMARK   11  A    between atoms: _27  and  _29
REMARK   12  A    between atoms: _29  and  _30
REMARK   13  A    between atoms: _29  and  _32
REMARK   14  A    between atoms: _32  and  _33
REMARK   15  A    between atoms: _36  and  _38
REMARK   16  A    between atoms: _38  and  _39
REMARK   17  A    between atoms: _38  and  _41
REMARK   18  A    between atoms: _41  and  _42
REMARK   19  A    between atoms: _47  and  _49
REMARK   20  A    between atoms: _49  and  _50
REMARK   21  A    between atoms: _49  and  _52
REMARK   22  A    between atoms: _52  and  _53
REMARK   23  A    between atoms: _56  and  _58
REMARK   24  A    between atoms: _58  and  _59
REMARK   25  A    between atoms: _61  and  _63
REMARK   26  A    between atoms: _63  and  _64
REMARK   27  A    between atoms: _67  and  _69
REMARK   28  A    between atoms: _69  and  _70
REMARK   29  A    between atoms: _69  and  _72
REMARK   30  A    between atoms: _72  and  _73
REMARK   31  A    between atoms: _76  and  _78
REMARK   32  A    between atoms: _78  and  _79
REMARK   33  A    between atoms: _78  and  _81
REMARK   34  A    between atoms: _81  and  _82
REMARK   35  A    between atoms: _85  and  _87
REMARK   36  A    between atoms: _87  and  _88
REMARK   37  A    between atoms: _87  and  _90
REMARK   38  A    between atoms: _90  and  _91
REMARK   39  A    between atoms: _94  and  _96
REMARK   40  A    between atoms: _96  and  _97
REMARK   41  A    between atoms: _96  and  _99
REMARK   42  A    between atoms: _102  and  _104
REMARK   43  A    between atoms: _104  and  _105
REMARK   44  A    between atoms: _104  and  _107
REMARK   45  A    between atoms: _107  and  _108
REMARK   46  A    between atoms: _108  and  _109
REMARK   47  A    between atoms: _109  and  _110
REMARK   48  A    between atoms: _110  and  _111
REMARK   49  A    between atoms: _115  and  _117
REMARK   50  A    between atoms: _117  and  _118
REMARK   51  A    between atoms: _117  and  _120
REMARK   52  A    between atoms: _120  and  _121
REMARK   53  A    between atoms: _121  and  _122
REMARK   54  A    between atoms: _124  and  _126
REMARK   55  A    between atoms: _126  and  _127
REMARK   56  A    between atoms: _126  and  _129
REMARK   57  A    between atoms: _129  and  _130
REMARK   58  A    between atoms: _133  and  _135
REMARK   59  A    between atoms: _135  and  _136
REMARK   60  A    between atoms: _138  and  _140
REMARK   61  A    between atoms: _140  and  _141
REMARK   62  A    between atoms: _143  and  _145
REMARK   63  A    between atoms: _145  and  _146
REMARK   64  A    between atoms: _145  and  _148
REMARK   65  A    between atoms: _148  and  _149
REMARK   66  A    between atoms: _152  and  _154
REMARK   67  A    between atoms: _154  and  _155
REMARK   68  A    between atoms: _157  and  _159
REMARK   69  A    between atoms: _159  and  _160
REMARK   70  A    between atoms: _162  and  _164
REMARK   71  A    between atoms: _164  and  _165
REMARK   72  A    between atoms: _164  and  _167
REMARK   73  A    between atoms: _167  and  _168
REMARK   74  A    between atoms: _174  and  _176
REMARK   75  A    between atoms: _176  and  _177
REMARK   76  A    between atoms: _176  and  _179
REMARK   77  A    between atoms: _179  and  _180
REMARK   78  A    between atoms: _183  and  _185
REMARK   79  A    between atoms: _185  and  _186
REMARK   80  A    between atoms: _185  and  _188
REMARK   81  A    between atoms: _191  and  _193
REMARK   82  A    between atoms: _193  and  _194
REMARK   83  A    between atoms: _193  and  _196
REMARK   84  A    between atoms: _196  and  _197
REMARK   85  A    between atoms: _200  and  _202
REMARK   86  A    between atoms: _202  and  _203
REMARK   87  A    between atoms: _202  and  _205
REMARK   88  A    between atoms: _205  and  _206
REMARK   89  A    between atoms: _210  and  _211
REMARK   90  A    between atoms: _216  and  _218
REMARK   91  A    between atoms: _218  and  _219
REMARK   92  A    between atoms: _218  and  _221
REMARK   93  A    between atoms: _224  and  _226
REMARK   94  A    between atoms: _226  and  _227
REMARK   95  A    between atoms: _226  and  _229
REMARK   96  A    between atoms: _229  and  _230
REMARK   97  A    between atoms: _235  and  _237
REMARK   98  A    between atoms: _237  and  _238
REMARK   99  A    between atoms: _237  and  _240
REMARK  100  A    between atoms: _240  and  _241
REMARK  101  A    between atoms: _240  and  _242
REMARK  102  A    between atoms: _244  and  _246
REMARK  103  A    between atoms: _246  and  _247
REMARK  104  A    between atoms: _246  and  _249
REMARK  105  A    between atoms: _249  and  _250
REMARK  106  A    between atoms: _253  and  _255
REMARK  107  A    between atoms: _255  and  _256
REMARK  108  A    between atoms: _258  and  _260
REMARK  109  A    between atoms: _260  and  _261
REMARK  110  A    between atoms: _260  and  _263
REMARK  111  A    between atoms: _263  and  _264
REMARK  112  A    between atoms: _264  and  _265
REMARK  113  A    between atoms: _265  and  _266
REMARK  114  A    between atoms: _275  and  _277
REMARK  115  A    between atoms: _277  and  _278
REMARK  116  A    between atoms: _277  and  _280
REMARK  117  A    between atoms: _280  and  _281
REMARK  118  A    between atoms: _286  and  _288
REMARK  119  A    between atoms: _288  and  _289
REMARK  120  A    between atoms: _288  and  _291
REMARK  121  A    between atoms: _291  and  _292
REMARK  122  A    between atoms: _292  and  _293
REMARK  123  A    between atoms: _293  and  _294
REMARK  124  A    between atoms: _303  and  _305
REMARK  125  A    between atoms: _305  and  _306
REMARK  126  A    between atoms: _305  and  _308
REMARK  127  A    between atoms: _308  and  _309
REMARK  128  A    between atoms: _312  and  _314
REMARK  129  A    between atoms: _314  and  _315
REMARK  130  A    between atoms: _314  and  _317
REMARK  131  A    between atoms: _317  and  _318
REMARK  132  A    between atoms: _321  and  _323
REMARK  133  A    between atoms: _323  and  _324
REMARK  134  A    between atoms: _323  and  _326
REMARK  135  A    between atoms: _326  and  _327
REMARK  136  A    between atoms: _332  and  _334
REMARK  137  A    between atoms: _334  and  _335
REMARK  138  A    between atoms: _334  and  _337
REMARK  139  A    between atoms: _337  and  _338
REMARK  140  A    between atoms: _341  and  _343
REMARK  141  A    between atoms: _343  and  _344
REMARK  142  A    between atoms: _346  and  _348
REMARK  143  A    between atoms: _348  and  _349
REMARK  144  A    between atoms: _352  and  _354
REMARK  145  A    between atoms: _354  and  _355
REMARK  146  A    between atoms: _354  and  _357
REMARK  147  A    between atoms: _357  and  _358
REMARK  148  A    between atoms: _361  and  _363
REMARK  149  A    between atoms: _363  and  _364
REMARK  150  A    between atoms: _363  and  _366
REMARK  151  A    between atoms: _366  and  _367
REMARK  152  A    between atoms: _370  and  _372
REMARK  153  A    between atoms: _372  and  _373
REMARK  154  A    between atoms: _372  and  _375
REMARK  155  A    between atoms: _375  and  _376
REMARK  156  A    between atoms: _379  and  _381
REMARK  157  A    between atoms: _381  and  _382
REMARK  158  A    between atoms: _381  and  _384
REMARK  159  A    between atoms: _387  and  _389
REMARK  160  A    between atoms: _389  and  _390
REMARK  161  A    between atoms: _389  and  _392
REMARK  162  A    between atoms: _392  and  _393
REMARK  163  A    between atoms: _393  and  _394
REMARK  164  A    between atoms: _394  and  _395
REMARK  165  A    between atoms: _395  and  _396
REMARK  166  A    between atoms: _400  and  _402
REMARK  167  A    between atoms: _402  and  _403
REMARK  168  A    between atoms: _402  and  _405
REMARK  169  A    between atoms: _405  and  _406
REMARK  170  A    between atoms: _406  and  _407
REMARK  171  A    between atoms: _409  and  _411
REMARK  172  A    between atoms: _411  and  _412
REMARK  173  A    between atoms: _411  and  _414
REMARK  174  A    between atoms: _414  and  _415
REMARK  175  A    between atoms: _418  and  _420
REMARK  176  A    between atoms: _420  and  _421
REMARK  177  A    between atoms: _423  and  _425
REMARK  178  A    between atoms: _425  and  _426
REMARK  179  A    between atoms: _428  and  _430
REMARK  180  A    between atoms: _430  and  _431
REMARK  181  A    between atoms: _430  and  _433
REMARK  182  A    between atoms: _433  and  _434
REMARK  183  A    between atoms: _437  and  _439
REMARK  184  A    between atoms: _439  and  _440
REMARK  185  A    between atoms: _442  and  _444
REMARK  186  A    between atoms: _444  and  _445
REMARK  187  A    between atoms: _447  and  _449
REMARK  188  A    between atoms: _449  and  _450
REMARK  189  A    between atoms: _449  and  _452
REMARK  190  A    between atoms: _452  and  _453
REMARK  191  A    between atoms: _459  and  _461
REMARK  192  A    between atoms: _461  and  _462
REMARK  193  A    between atoms: _461  and  _464
REMARK  194  A    between atoms: _464  and  _465
REMARK  195  A    between atoms: _468  and  _470
REMARK  196  A    between atoms: _470  and  _471
REMARK  197  A    between atoms: _470  and  _473
REMARK  198  A    between atoms: _473  and  _474
REMARK  199  A    between atoms: _477  and  _479
REMARK  200  A    between atoms: _479  and  _480
REMARK  201  A    between atoms: _479  and  _482
REMARK  202  A    between atoms: _482  and  _483
REMARK  203  A    between atoms: _487  and  _488
REMARK  204  A    between atoms: _493  and  _495
REMARK  205  A    between atoms: _495  and  _496
REMARK  206  A    between atoms: _495  and  _498
REMARK  207  A    between atoms: _501  and  _503
REMARK  208  A    between atoms: _503  and  _504
REMARK  209  A    between atoms: _503  and  _506
REMARK  210  A    between atoms: _506  and  _507
REMARK  211  A    between atoms: _512  and  _514
REMARK  212  A    between atoms: _514  and  _515
REMARK  213  A    between atoms: _514  and  _517
REMARK  214  A    between atoms: _517  and  _518
REMARK  215  A    between atoms: _521  and  _523
REMARK  216  A    between atoms: _523  and  _524
REMARK  217  A    between atoms: _523  and  _526
REMARK  218  A    between atoms: _526  and  _527
REMARK  219  A    between atoms: _530  and  _532
REMARK  220  A    between atoms: _532  and  _533
REMARK  221  A    between atoms: _535  and  _537
REMARK  222  A    between atoms: _537  and  _538
REMARK  223  A    between atoms: _537  and  _540
REMARK  224  A    between atoms: _540  and  _541
REMARK  225  A    between atoms: _541  and  _542
REMARK  226  A    between atoms: _542  and  _543
REMARK  227  A    between atoms: _552  and  _554
REMARK  228  A    between atoms: _554  and  _555
REMARK  229  A    between atoms: _554  and  _557
REMARK  230  A    between atoms: _557  and  _558
REMARK                            x       y       z     vdW  Elec       q    Type
REMARK                         _______ _______ _______ _____ _____    ______ ____
ROOT
ATOM      1  NE  ARG A   1      22.523  65.260  15.201  0.00  0.00    -0.265 N 
ATOM      2  HE  ARG A   1      22.820  65.735  16.077  0.00  0.00    +0.259 HD
ATOM      3  CZ  ARG A   1      21.535  65.777  14.461  0.00  0.00    +0.342 C 
ATOM      4  NH2 ARG A   1      20.992  66.901  14.926  0.00  0.00    -0.292 N 
ATOM      5 HH21 ARG A   1      21.341  67.320  15.812  0.00  0.00    +0.255 HD
ATOM      6 HH22 ARG A   1      20.219  67.360  14.403  0.00  0.00    +0.255 HD
ATOM      7  NH1 ARG A   1      21.102  65.211  13.332  0.00  0.00    -0.292 N 
ATOM      8 HH11 ARG A   1      21.536  64.329  12.993  0.00  0.00    +0.255 HD
ATOM      9 HH12 ARG A   1      20.330  65.652  12.792  0.00  0.00    +0.255 HD
ENDROOT
BRANCH   1  10
ATOM     10  CD  ARG A   1      23.182  64.031  14.778  0.00  0.00    +0.174 C 
BRANCH  10  11
ATOM     11  CG  ARG A   1      23.988  63.445  15.929  0.00  0.00    +0.045 C 
BRANCH  11  12
ATOM     12  CB  ARG A   1      24.600  62.094  15.538  0.00  0.00    +0.029 C 
BRANCH  12  13
ATOM     13  CA  ARG A   1      25.246  61.373  16.720  0.00  0.00    +0.133 C 
BRANCH  13  14
ATOM     14  N   ARG A   1      26.442  62.053  17.194  0.00  0.00    -0.239 NA
ATOM     15  H   ARG A   1      26.767  62.926  16.733  0.00  0.00    +0.142 HD
ENDBRANCH  13  14
BRANCH  13  16
ATOM     16  C   ARG A   1      25.589  59.951  16.254  0.00  0.00    +0.224 C 
ATOM     17  O   ARG A   1      26.599  59.802  15.557  0.00  0.00    -0.287 OA
ENDBRANCH  13  16
ENDBRANCH  12  13
ENDBRANCH  11  12
ENDBRANCH  10  11
ENDBRANCH   1  10
TORSDOF 6
REMARK  Name = ../refined-set-2016/3bvb/3bvb_pocket.pdb
REMARK  230 active torsions:
REMARK  status: ('A' for Active; 'I' for Inactive)
REMARK    1  A    between atoms: _1  and  _3
REMARK    2  A    between atoms: _3  and  _4
REMARK    3  A    between atoms: _3  and  _6
REMARK    4  A    between atoms: _6  and  _7
REMARK    5  A    between atoms: _7  and  _8
REMARK    6  A    between atoms: _8  and  _9
REMARK    7  A    between atoms: _18  and  _20
REMARK    8  A    between atoms: _20  and  _21
REMARK    9  A    between atoms: _20  and  _23
REMARK   10  A    between atoms: _23  and  _24
REMARK   11  A    between atoms: _27  and  _29
REMARK   12  A    between atoms: _29  and  _30
REMARK   13  A    between atoms: _29  and  _32
REMARK   14  A    between atoms: _32  and  _33
REMARK   15  A    between atoms: _36  and  _38
REMARK   16  A    between atoms: _38  and  _39
REMARK   17  A    between atoms: _38  and  _41
REMARK   18  A    between atoms: _41  and  _42
REMARK   19  A    between atoms: _47  and  _49
REMARK   20  A    between atoms: _49  and  _50
REMARK   21  A    between atoms: _49  and  _52
REMARK   22  A    between atoms: _52  and  _53
REMARK   23  A    between atoms: _56  and  _58
REMARK   24  A    between atoms: _58  and  _59
REMARK   25  A    between atoms: _61  and  _63
REMARK   26  A    between atoms: _63  and  _64
REMARK   27  A    between atoms: _67  and  _69
REMARK   28  A    between atoms: _69  and  _70
REMARK   29  A    between atoms: _69  and  _72
REMARK   30  A    between atoms: _72  and  _73
REMARK   31  A    between atoms: _76  and  _78
REMARK   32  A    between atoms: _78  and  _79
REMARK   33  A    between atoms: _78  and  _81
REMARK   34  A    between atoms: _81  and  _82
REMARK   35  A    between atoms: _85  and  _87
REMARK   36  A    between atoms: _87  and  _88
REMARK   37  A    between atoms: _87  and  _90
REMARK   38  A    between atoms: _90  and  _91
REMARK   39  A    between atoms: _94  and  _96
REMARK   40  A    between atoms: _96  and  _97
REMARK   41  A    between atoms: _96  and  _99
REMARK   42  A    between atoms: _102  and  _104
REMARK   43  A    between atoms: _104  and  _105
REMARK   44  A    between atoms: _104  and  _107
REMARK   45  A    between atoms: _107  and  _108
REMARK   46  A    between atoms: _108  and  _109
REMARK   47  A    between atoms: _109  and  _110
REMARK   48  A    between atoms: _110  and  _111
REMARK   49  A    between atoms: _115  and  _117
REMARK   50  A    between atoms: _117  and  _118
REMARK   51  A    between atoms: _117  and  _120
REMARK   52  A    between atoms: _120  and  _121
REMARK   53  A    between atoms: _121  and  _122
REMARK   54  A    between atoms: _124  and  _126
REMARK   55  A    between atoms: _126  and  _127
REMARK   56  A    between atoms: _126  and  _129
REMARK   57  A    between atoms: _129  and  _130
REMARK   58  A    between atoms: _133  and  _135
REMARK   59  A    between atoms: _135  and  _136
REMARK   60  A    between atoms: _138  and  _140
REMARK   61  A    between atoms: _140  and  _141
REMARK   62  A    between atoms: _143  and  _145
REMARK   63  A    between atoms: _145  and  _146
REMARK   64  A    between atoms: _145  and  _148
REMARK   65  A    between atoms: _148  and  _149
REMARK   66  A    between atoms: _152  and  _154
REMARK   67  A    between atoms: _154  and  _155
REMARK   68  A    between atoms: _157  and  _159
REMARK   69  A    between atoms: _159  and  _160
REMARK   70  A    between atoms: _162  and  _164
REMARK   71  A    between atoms: _164  and  _165
REMARK   72  A    between atoms: _164  and  _167
REMARK   73  A    between atoms: _167  and  _168
REMARK   74  A    between atoms: _174  and  _176
REMARK   75  A    between atoms: _176  and  _177
REMARK   76  A    between atoms: _176  and  _179
REMARK   77  A    between atoms: _179  and  _180
REMARK   78  A    between atoms: _183  and  _185
REMARK   79  A    between atoms: _185  and  _186
REMARK   80  A    between atoms: _185  and  _188
REMARK   81  A    between atoms: _191  and  _193
REMARK   82  A    between atoms: _193  and  _194
REMARK   83  A    between atoms: _193  and  _196
REMARK   84  A    between atoms: _196  and  _197
REMARK   85  A    between atoms: _200  and  _202
REMARK   86  A    between atoms: _202  and  _203
REMARK   87  A    between atoms: _202  and  _205
REMARK   88  A    between atoms: _205  and  _206
REMARK   89  A    between atoms: _210  and  _211
REMARK   90  A    between atoms: _216  and  _218
REMARK   91  A    between atoms: _218  and  _219
REMARK   92  A    between atoms: _218  and  _221
REMARK   93  A    between atoms: _224  and  _226
REMARK   94  A    between atoms: _226  and  _227
REMARK   95  A    between atoms: _226  and  _229
REMARK   96  A    between atoms: _229  and  _230
REMARK   97  A    between atoms: _235  and  _237
REMARK   98  A    between atoms: _237  and  _238
REMARK   99  A    between atoms: _237  and  _240
REMARK  100  A    between atoms: _240  and  _241
REMARK  101  A    between atoms: _240  and  _242
REMARK  102  A    between atoms: _244  and  _246
REMARK  103  A    between atoms: _246  and  _247
REMARK  104  A    between atoms: _246  and  _249
REMARK  105  A    between atoms: _249  and  _250
REMARK  106  A    between atoms: _253  and  _255
REMARK  107  A    between atoms: _255  and  _256
REMARK  108  A    between atoms: _258  and  _260
REMARK  109  A    between atoms: _260  and  _261
REMARK  110  A    between atoms: _260  and  _263
REMARK  111  A    between atoms: _263  and  _264
REMARK  112  A    between atoms: _264  and  _265
REMARK  113  A    between atoms: _265  and  _266
REMARK  114  A    between atoms: _275  and  _277
REMARK  115  A    between atoms: _277  and  _278
REMARK  116  A    between atoms: _277  and  _280
REMARK  117  A    between atoms: _280  and  _281
REMARK  118  A    between atoms: _286  and  _288
REMARK  119  A    between atoms: _288  and  _289
REMARK  120  A    between atoms: _288  and  _291
REMARK  121  A    between atoms: _291  and  _292
REMARK  122  A    between atoms: _292  and  _293
REMARK  123  A    between atoms: _293  and  _294
REMARK  124  A    between atoms: _303  and  _305
REMARK  125  A    between atoms: _305  and  _306
REMARK  126  A    between atoms: _305  and  _308
REMARK  127  A    between atoms: _308  and  _309
REMARK  128  A    between atoms: _312  and  _314
REMARK  129  A    between atoms: _314  and  _315
REMARK  130  A    between atoms: _314  and  _317
REMARK  131  A    between atoms: _317  and  _318
REMARK  132  A    between atoms: _321  and  _323
REMARK  133  A    between atoms: _323  and  _324
REMARK  134  A    between atoms: _323  and  _326
REMARK  135  A    between atoms: _326  and  _327
REMARK  136  A    between atoms: _332  and  _334
REMARK  137  A    between atoms: _334  and  _335
REMARK  138  A    between atoms: _334  and  _337
REMARK  139  A    between atoms: _337  and  _338
REMARK  140  A    between atoms: _341  and  _343
REMARK  141  A    between atoms: _343  and  _344
REMARK  142  A    between atoms: _346  and  _348
REMARK  143  A    between atoms: _348  and  _349
REMARK  144  A    between atoms: _352  and  _354
REMARK  145  A    between atoms: _354  and  _355
REMARK  146  A    between atoms: _354  and  _357
REMARK  147  A    between atoms: _357  and  _358
REMARK  148  A    between atoms: _361  and  _363
REMARK  149  A    between atoms: _363  and  _364
REMARK  150  A    between atoms: _363  and  _366
REMARK  151  A    between atoms: _366  and  _367
REMARK  152  A    between atoms: _370  and  _372
REMARK  153  A    between atoms: _372  and  _373
REMARK  154  A    between atoms: _372  and  _375
REMARK  155  A    between atoms: _375  and  _376
REMARK  156  A    between atoms: _379  and  _381
REMARK  157  A    between atoms: _381  and  _382
REMARK  158  A    between atoms: _381  and  _384
REMARK  159  A    between atoms: _387  and  _389
REMARK  160  A    between atoms: _389  and  _390
REMARK  161  A    between atoms: _389  and  _392
REMARK  162  A    between atoms: _392  and  _393
REMARK  163  A    between atoms: _393  and  _394
REMARK  164  A    between atoms: _394  and  _395
REMARK  165  A    between atoms: _395  and  _396
REMARK  166  A    between atoms: _400  and  _402
REMARK  167  A    between atoms: _402  and  _403
REMARK  168  A    between atoms: _402  and  _405
REMARK  169  A    between atoms: _405  and  _406
REMARK  170  A    between atoms: _406  and  _407
REMARK  171  A    between atoms: _409  and  _411
REMARK  172  A    between atoms: _411  and  _412
REMARK  173  A    between atoms: _411  and  _414
REMARK  174  A    between atoms: _414  and  _415
REMARK  175  A    between atoms: _418  and  _420
REMARK  176  A    between atoms: _420  and  _421
REMARK  177  A    between atoms: _423  and  _425
REMARK  178  A    between atoms: _425  and  _426
REMARK  179  A    between atoms: _428  and  _430
REMARK  180  A    between atoms: _430  and  _431
REMARK  181  A    between atoms: _430  and  _433
REMARK  182  A    between atoms: _433  and  _434
REMARK  183  A    between atoms: _437  and  _439
REMARK  184  A    between atoms: _439  and  _440
REMARK  185  A    between atoms: _442  and  _444
REMARK  186  A    between atoms: _444  and  _445
REMARK  187  A    between atoms: _447  and  _449
REMARK  188  A    between atoms: _449  and  _450
REMARK  189  A    between atoms: _449  and  _452
REMARK  190  A    between atoms: _452  and  _453
REMARK  191  A    between atoms: _459  and  _461
REMARK  192  A    between atoms: _461  and  _462
REMARK  193  A    between atoms: _461  and  _464
REMARK  194  A    between atoms: _464  and  _465
REMARK  195  A    between atoms: _468  and  _470
REMARK  196  A    between atoms: _470  and  _471
REMARK  197  A    between atoms: _470  and  _473
REMARK  198  A    between atoms: _473  and  _474
REMARK  199  A    between atoms: _477  and  _479
REMARK  200  A    between atoms: _479  and  _480
REMARK  201  A    between atoms: _479  and  _482
REMARK  202  A    between atoms: _482  and  _483
REMARK  203  A    between atoms: _487  and  _488
REMARK  204  A    between atoms: _493  and  _495
REMARK  205  A    between atoms: _495  and  _496
REMARK  206  A    between atoms: _495  and  _498
REMARK  207  A    between atoms: _501  and  _503
REMARK  208  A    between atoms: _503  and  _504
REMARK  209  A    between atoms: _503  and  _506
REMARK  210  A    between atoms: _506  and  _507
REMARK  211  A    between atoms: _512  and  _514
REMARK  212  A    between atoms: _514  and  _515
REMARK  213  A    between atoms: _514  and  _517
REMARK  214  A    between atoms: _517  and  _518
REMARK  215  A    between atoms: _521  and  _523
REMARK  216  A    between atoms: _523  and  _524
REMARK  217  A    between atoms: _523  and  _526
REMARK  218  A    between atoms: _526  and  _527
REMARK  219  A    between atoms: _530  and  _532
REMARK  220  A    between atoms: _532  and  _533
REMARK  221  A    between atoms: _535  and  _537
REMARK  222  A    between atoms: _537  and  _538
REMARK  223  A    between atoms: _537  and  _540
REMARK  224  A    between atoms: _540  and  _541
REMARK  225  A    between atoms: _541  and  _542
REMARK  226  A    between atoms: _542  and  _543
REMARK  227  A    between atoms: _552  and  _554
REMARK  228  A    between atoms: _554  and  _555
REMARK  229  A    between atoms: _554  and  _557
REMARK  230  A    between atoms: _557  and  _558
REMARK                            x       y       z     vdW  Elec       q    Type
REMARK                         _______ _______ _______ _____ _____    ______ ____
ROOT
ATOM      1  C   GLY A   5      12.156  57.758  19.765  0.00  0.00    +0.243 C 
ATOM      2  O   GLY A   5      11.135  58.448  19.889  0.00  0.00    -0.273 OA
ATOM      3  N   ALA A   6      12.290  56.969  18.721  0.00  0.00    -0.297 N 
ATOM      4  H   ALA A   6      13.151  56.387  18.689  0.00  0.00    +0.150 HD
ENDROOT
BRANCH   3   5
ATOM      5  CA  ALA A   6      11.383  56.822  17.624  0.00  0.00    +0.149 C 
ATOM      6  CB  ALA A   6      12.153  56.963  16.312  0.00  0.00    +0.031 C 
BRANCH   5   7
ATOM      7  C   ALA A   6      10.814  55.421  17.609  0.00  0.00    +0.241 C 
ATOM      8  O   ALA A   6      11.557  54.450  17.639  0.00  0.00    -0.273 OA
ATOM      9  N   ASP A   7       9.525  55.251  17.510  0.00  0.00    -0.297 N 
ATOM     10  H   ASP A   7       8.933  56.106  17.500  0.00  0.00    +0.150 HD
BRANCH   9  11
ATOM     11  CA  ASP A   7       8.858  54.002  17.415  0.00  0.00    +0.160 C 
BRANCH  11  12
ATOM     12  C   ASP A   7       9.147  53.391  16.025  0.00  0.00    +0.241 C 
ATOM     13  O   ASP A   7       9.555  52.269  15.799  0.00  0.00    -0.273 OA
ATOM     14  N   ASP A   8       9.000  54.175  14.976  0.00  0.00    -0.297 N 
ATOM     15  H   ASP A   8       8.833  55.184  15.165  0.00  0.00    +0.150 HD
BRANCH  14  16
ATOM     16  CA  ASP A   8       9.048  53.773  13.592  0.00  0.00    +0.160 C 
BRANCH  16  17
ATOM     17  C   ASP A   8      10.289  54.369  12.907  0.00  0.00    +0.241 C 
ATOM     18  O   ASP A   8      10.828  55.391  13.269  0.00  0.00    -0.273 OA
ATOM     19  N   THR A   9      10.755  53.738  11.873  0.00  0.00    -0.295 N 
ATOM     20  H   THR A   9      10.323  52.815  11.668  0.00  0.00    +0.150 HD
BRANCH  19  21
ATOM     21  CA  THR A   9      11.804  54.164  10.970  0.00  0.00    +0.176 C 
BRANCH  21  22
ATOM     22  C   THR A   9      11.230  55.122   9.959  0.00  0.00    +0.243 C 
ATOM     23  N   VAL A  10      11.902  56.255   9.738  0.00  0.00    -0.298 N 
ATOM     24  H   VAL A  10      12.801  56.403  10.239  0.00  0.00    +0.150 HD
ATOM     25  O   THR A   9      10.181  54.822   9.378  0.00  0.00    -0.273 OA
BRANCH  23  26
ATOM     26  CA  VAL A  10      11.441  57.282   8.838  0.00  0.00    +0.137 C 
BRANCH  26  27
ATOM     27  CB  VAL A  10      10.910  58.553   9.561  0.00  0.00    +0.026 C 
ATOM     28  CG2 VAL A  10      10.069  58.206  10.747  0.00  0.00    +0.002 C 
ATOM     29  CG1 VAL A  10      10.182  59.388   8.512  0.00  0.00    +0.002 C 
ENDBRANCH  26  27
BRANCH  26  30
ATOM     30  C   VAL A  10      12.637  57.679   7.946  0.00  0.00    +0.227 C 
ATOM     31  O   VAL A  10      13.707  58.055   8.407  0.00  0.00    -0.286 OA
ENDBRANCH  26  30
ENDBRANCH  23  26
ENDBRANCH  21  22
BRANCH  21  32
ATOM     32  CB  THR A   9      12.394  52.891  10.354  0.00  0.00    +0.137 C 
ATOM     33  CG2 THR A   9      13.398  53.201   9.255  0.00  0.00    +0.034 C 
BRANCH  32  34
ATOM     34  OG1 THR A   9      13.024  52.160  11.417  0.00  0.00    -0.382 OA
ATOM     35  HG1 THR A   9      13.418  51.327  11.055  0.00  0.00    +0.210 HD
ENDBRANCH  32  34
ENDBRANCH  21  32
ENDBRANCH  19  21
ENDBRANCH  16  17
BRANCH  16  36
ATOM     36  CB  ASP A   8       7.770  54.040  12.810  0.00  0.00    +0.143 C 
BRANCH  36  37
ATOM     37  CG  ASP A   8       6.715  52.944  12.795  0.00  0.00    +0.367 C 
ATOM     38  OD2 ASP A   8       6.934  51.748  13.114  0.00  0.00    -0.246 OA
ATOM     39  OD1 ASP A   8       5.559  53.290  12.413  0.00  0.00    -0.246 OA
ENDBRANCH  36  37
ENDBRANCH  16  36
ENDBRANCH  14  16
ENDBRANCH  11  12
BRANCH  11  40
ATOM     40  CB  ASP A   7       7.365  54.182  17.708  0.00  0.00    +0.143 C 
BRANCH  40  41
ATOM     41  CG  ASP A   7       6.874  54.838  18.988  0.00  0.00    +0.367 C 
ATOM     42  OD2 ASP A   7       7.543  54.934  20.056  0.00  0.00    -0.246 OA
ATOM     43  OD1 ASP A   7       5.690  55.284  19.029  0.00  0.00    -0.246 OA
ENDBRANCH  40  41
ENDBRANCH  11  40
ENDBRANCH   9  11
ENDBRANCH   5   7
ENDBRANCH   3   5
BRANCH   1  44
ATOM     44  CA  GLY A   5      13.258  57.826  20.771  0.00  0.00    +0.176 C 
BRANCH  44  47
ATOM     45  C   THR A   4      14.474  55.736  20.866  0.00  0.00    +0.243 C 
ATOM     46  O   THR A   4      13.568  55.180  21.478  0.00  0.00    -0.273 OA
ATOM     47  N   GLY A   5      14.408  56.991  20.475  0.00  0.00    -0.295 N 
ATOM     48  H   GLY A   5      15.202  57.396  19.939  0.00  0.00    +0.150 HD
BRANCH  45  49
ATOM     49  CA  THR A   4      15.749  54.970  20.480  0.00  0.00    +0.176 C 
BRANCH  49  51
ATOM     50  C   ASN A   3      16.130  55.775  18.264  0.00  0.00    +0.241 C 
ATOM     51  N   THR A   4      16.561  55.663  19.510  0.00  0.00    -0.295 N 
ATOM     52  H   THR A   4      17.477  56.071  19.787  0.00  0.00    +0.150 HD
ATOM     53  O   ASN A   3      15.072  55.310  17.853  0.00  0.00    -0.273 OA
BRANCH  50  54
ATOM     54  CA  ASN A   3      17.033  56.571  17.311  0.00  0.00    +0.158 C 
BRANCH  54  57
ATOM     55  C   LEU A   2      19.196  55.885  16.502  0.00  0.00    +0.241 C 
ATOM     56  O   LEU A   2      19.792  56.633  17.296  0.00  0.00    -0.273 OA
ATOM     57  N   ASN A   3      17.890  55.704  16.544  0.00  0.00    -0.297 N 
ATOM     58  H   ASN A   3      17.469  54.917  16.011  0.00  0.00    +0.150 HD
BRANCH  55  59
ATOM     59  CA  LEU A   2      19.960  55.181  15.390  0.00  0.00    +0.149 C 
BRANCH  59  61
ATOM     60  C   LEU A   1      19.860  56.846  13.616  0.00  0.00    +0.238 C 
ATOM     61  N   LEU A   2      20.554  56.184  14.527  0.00  0.00    -0.297 N 
ATOM     62  H   LEU A   2      21.568  56.391  14.629  0.00  0.00    +0.150 HD
ATOM     63  O   LEU A   1      18.714  56.577  13.367  0.00  0.00    -0.274 OA
BRANCH  60  64
ATOM     64  CA  LEU A   1      20.544  57.981  12.851  0.00  0.00    +0.145 C 
BRANCH  64  65
ATOM     65  N   LEU A   1      20.366  57.824  11.443  0.00  0.00    -0.238 NA
ATOM     66  H   LEU A   1      19.504  58.220  11.017  0.00  0.00    +0.142 HD
ENDBRANCH  64  65
BRANCH  64  67
ATOM     67  CB  LEU A   1      19.952  59.353  13.192  0.00  0.00    +0.026 C 
BRANCH  67  68
ATOM     68  CG  LEU A   1      19.962  59.793  14.632  0.00  0.00    +0.002 C 
ATOM     69  CD2 LEU A   1      21.343  60.098  15.093  0.00  0.00    +0.000 C 
ATOM     70  CD1 LEU A   1      19.141  61.079  14.775  0.00  0.00    +0.000 C 
ENDBRANCH  67  68
ENDBRANCH  64  67
ENDBRANCH  60  64
ENDBRANCH  59  61
BRANCH  59  71
ATOM     71  CB  LEU A   2      21.039  54.266  15.970  0.00  0.00    +0.029 C 
BRANCH  71  72
ATOM     72  CG  LEU A   2      21.899  53.498  14.975  0.00  0.00    +0.002 C 
ATOM     73  CD2 LEU A   2      22.883  52.643  15.762  0.00  0.00    +0.000 C 
ATOM     74  CD1 LEU A   2      21.014  52.690  14.065  0.00  0.00    +0.000 C 
ENDBRANCH  71  72
ENDBRANCH  59  71
ENDBRANCH  55  59
ENDBRANCH  54  57
BRANCH  54  75
ATOM     75  CB  ASN A   3      16.159  57.373  16.374  0.00  0.00    +0.114 C 
BRANCH  75  76
ATOM     76  CG  ASN A   3      15.497  58.545  17.029  0.00  0.00    +0.222 C 
ATOM     77  OD1 ASN A   3      15.353  58.603  18.216  0.00  0.00    -0.275 OA
ATOM     78  ND2 ASN A   3      15.116  59.515  16.227  0.00  0.00    -0.329 N 
ATOM     79 HD21 ASN A   3      14.672  60.370  16.619  0.00  0.00    +0.145 HD
ATOM     80 HD22 ASN A   3      15.258  59.427  15.201  0.00  0.00    +0.145 HD
ENDBRANCH  75  76
ENDBRANCH  54  75
ENDBRANCH  50  54
ENDBRANCH  49  51
BRANCH  49  81
ATOM     81  CB  THR A   4      16.575  54.689  21.751  0.00  0.00    +0.137 C 
ATOM     82  CG2 THR A   4      17.790  53.834  21.464  0.00  0.00    +0.034 C 
BRANCH  81  83
ATOM     83  OG1 THR A   4      17.004  55.907  22.334  0.00  0.00    -0.382 OA
ATOM     84  HG1 THR A   4      16.214  56.453  22.574  0.00  0.00    +0.210 HD
ENDBRANCH  81  83
ENDBRANCH  49  81
ENDBRANCH  45  49
ENDBRANCH  44  47
ENDBRANCH   1  44
TORSDOF 35
REMARK  Name = ../refined-set-2016/3bvb/3bvb_pocket.pdb
REMARK  230 active torsions:
REMARK  status: ('A' for Active; 'I' for Inactive)
REMARK    1  A    between atoms: _1  and  _3
REMARK    2  A    between atoms: _3  and  _4
REMARK    3  A    between atoms: _3  and  _6
REMARK    4  A    between atoms: _6  and  _7
REMARK    5  A    between atoms: _7  and  _8
REMARK    6  A    between atoms: _8  and  _9
REMARK    7  A    between atoms: _18  and  _20
REMARK    8  A    between atoms: _20  and  _21
REMARK    9  A    between atoms: _20  and  _23
REMARK   10  A    between atoms: _23  and  _24
REMARK   11  A    between atoms: _27  and  _29
REMARK   12  A    between atoms: _29  and  _30
REMARK   13  A    between atoms: _29  and  _32
REMARK   14  A    between atoms: _32  and  _33
REMARK   15  A    between atoms: _36  and  _38
REMARK   16  A    between atoms: _38  and  _39
REMARK   17  A    between atoms: _38  and  _41
REMARK   18  A    between atoms: _41  and  _42
REMARK   19  A    between atoms: _47  and  _49
REMARK   20  A    between atoms: _49  and  _50
REMARK   21  A    between atoms: _49  and  _52
REMARK   22  A    between atoms: _52  and  _53
REMARK   23  A    between atoms: _56  and  _58
REMARK   24  A    between atoms: _58  and  _59
REMARK   25  A    between atoms: _61  and  _63
REMARK   26  A    between atoms: _63  and  _64
REMARK   27  A    between atoms: _67  and  _69
REMARK   28  A    between atoms: _69  and  _70
REMARK   29  A    between atoms: _69  and  _72
REMARK   30  A    between atoms: _72  and  _73
REMARK   31  A    between atoms: _76  and  _78
REMARK   32  A    between atoms: _78  and  _79
REMARK   33  A    between atoms: _78  and  _81
REMARK   34  A    between atoms: _81  and  _82
REMARK   35  A    between atoms: _85  and  _87
REMARK   36  A    between atoms: _87  and  _88
REMARK   37  A    between atoms: _87  and  _90
REMARK   38  A    between atoms: _90  and  _91
REMARK   39  A    between atoms: _94  and  _96
REMARK   40  A    between atoms: _96  and  _97
REMARK   41  A    between atoms: _96  and  _99
REMARK   42  A    between atoms: _102  and  _104
REMARK   43  A    between atoms: _104  and  _105
REMARK   44  A    between atoms: _104  and  _107
REMARK   45  A    between atoms: _107  and  _108
REMARK   46  A    between atoms: _108  and  _109
REMARK   47  A    between atoms: _109  and  _110
REMARK   48  A    between atoms: _110  and  _111
REMARK   49  A    between atoms: _115  and  _117
REMARK   50  A    between atoms: _117  and  _118
REMARK   51  A    between atoms: _117  and  _120
REMARK   52  A    between atoms: _120  and  _121
REMARK   53  A    between atoms: _121  and  _122
REMARK   54  A    between atoms: _124  and  _126
REMARK   55  A    between atoms: _126  and  _127
REMARK   56  A    between atoms: _126  and  _129
REMARK   57  A    between atoms: _129  and  _130
REMARK   58  A    between atoms: _133  and  _135
REMARK   59  A    between atoms: _135  and  _136
REMARK   60  A    between atoms: _138  and  _140
REMARK   61  A    between atoms: _140  and  _141
REMARK   62  A    between atoms: _143  and  _145
REMARK   63  A    between atoms: _145  and  _146
REMARK   64  A    between atoms: _145  and  _148
REMARK   65  A    between atoms: _148  and  _149
REMARK   66  A    between atoms: _152  and  _154
REMARK   67  A    between atoms: _154  and  _155
REMARK   68  A    between atoms: _157  and  _159
REMARK   69  A    between atoms: _159  and  _160
REMARK   70  A    between atoms: _162  and  _164
REMARK   71  A    between atoms: _164  and  _165
REMARK   72  A    between atoms: _164  and  _167
REMARK   73  A    between atoms: _167  and  _168
REMARK   74  A    between atoms: _174  and  _176
REMARK   75  A    between atoms: _176  and  _177
REMARK   76  A    between atoms: _176  and  _179
REMARK   77  A    between atoms: _179  and  _180
REMARK   78  A    between atoms: _183  and  _185
REMARK   79  A    between atoms: _185  and  _186
REMARK   80  A    between atoms: _185  and  _188
REMARK   81  A    between atoms: _191  and  _193
REMARK   82  A    between atoms: _193  and  _194
REMARK   83  A    between atoms: _193  and  _196
REMARK   84  A    between atoms: _196  and  _197
REMARK   85  A    between atoms: _200  and  _202
REMARK   86  A    between atoms: _202  and  _203
REMARK   87  A    between atoms: _202  and  _205
REMARK   88  A    between atoms: _205  and  _206
REMARK   89  A    between atoms: _210  and  _211
REMARK   90  A    between atoms: _216  and  _218
REMARK   91  A    between atoms: _218  and  _219
REMARK   92  A    between atoms: _218  and  _221
REMARK   93  A    between atoms: _224  and  _226
REMARK   94  A    between atoms: _226  and  _227
REMARK   95  A    between atoms: _226  and  _229
REMARK   96  A    between atoms: _229  and  _230
REMARK   97  A    between atoms: _235  and  _237
REMARK   98  A    between atoms: _237  and  _238
REMARK   99  A    between atoms: _237  and  _240
REMARK  100  A    between atoms: _240  and  _241
REMARK  101  A    between atoms: _240  and  _242
REMARK  102  A    between atoms: _244  and  _246
REMARK  103  A    between atoms: _246  and  _247
REMARK  104  A    between atoms: _246  and  _249
REMARK  105  A    between atoms: _249  and  _250
REMARK  106  A    between atoms: _253  and  _255
REMARK  107  A    between atoms: _255  and  _256
REMARK  108  A    between atoms: _258  and  _260
REMARK  109  A    between atoms: _260  and  _261
REMARK  110  A    between atoms: _260  and  _263
REMARK  111  A    between atoms: _263  and  _264
REMARK  112  A    between atoms: _264  and  _265
REMARK  113  A    between atoms: _265  and  _266
REMARK  114  A    between atoms: _275  and  _277
REMARK  115  A    between atoms: _277  and  _278
REMARK  116  A    between atoms: _277  and  _280
REMARK  117  A    between atoms: _280  and  _281
REMARK  118  A    between atoms: _286  and  _288
REMARK  119  A    between atoms: _288  and  _289
REMARK  120  A    between atoms: _288  and  _291
REMARK  121  A    between atoms: _291  and  _292
REMARK  122  A    between atoms: _292  and  _293
REMARK  123  A    between atoms: _293  and  _294
REMARK  124  A    between atoms: _303  and  _305
REMARK  125  A    between atoms: _305  and  _306
REMARK  126  A    between atoms: _305  and  _308
REMARK  127  A    between atoms: _308  and  _309
REMARK  128  A    between atoms: _312  and  _314
REMARK  129  A    between atoms: _314  and  _315
REMARK  130  A    between atoms: _314  and  _317
REMARK  131  A    between atoms: _317  and  _318
REMARK  132  A    between atoms: _321  and  _323
REMARK  133  A    between atoms: _323  and  _324
REMARK  134  A    between atoms: _323  and  _326
REMARK  135  A    between atoms: _326  and  _327
REMARK  136  A    between atoms: _332  and  _334
REMARK  137  A    between atoms: _334  and  _335
REMARK  138  A    between atoms: _334  and  _337
REMARK  139  A    between atoms: _337  and  _338
REMARK  140  A    between atoms: _341  and  _343
REMARK  141  A    between atoms: _343  and  _344
REMARK  142  A    between atoms: _346  and  _348
REMARK  143  A    between atoms: _348  and  _349
REMARK  144  A    between atoms: _352  and  _354
REMARK  145  A    between atoms: _354  and  _355
REMARK  146  A    between atoms: _354  and  _357
REMARK  147  A    between atoms: _357  and  _358
REMARK  148  A    between atoms: _361  and  _363
REMARK  149  A    between atoms: _363  and  _364
REMARK  150  A    between atoms: _363  and  _366
REMARK  151  A    between atoms: _366  and  _367
REMARK  152  A    between atoms: _370  and  _372
REMARK  153  A    between atoms: _372  and  _373
REMARK  154  A    between atoms: _372  and  _375
REMARK  155  A    between atoms: _375  and  _376
REMARK  156  A    between atoms: _379  and  _381
REMARK  157  A    between atoms: _381  and  _382
REMARK  158  A    between atoms: _381  and  _384
REMARK  159  A    between atoms: _387  and  _389
REMARK  160  A    between atoms: _389  and  _390
REMARK  161  A    between atoms: _389  and  _392
REMARK  162  A    between atoms: _392  and  _393
REMARK  163  A    between atoms: _393  and  _394
REMARK  164  A    between atoms: _394  and  _395
REMARK  165  A    between atoms: _395  and  _396
REMARK  166  A    between atoms: _400  and  _402
REMARK  167  A    between atoms: _402  and  _403
REMARK  168  A    between atoms: _402  and  _405
REMARK  169  A    between atoms: _405  and  _406
REMARK  170  A    between atoms: _406  and  _407
REMARK  171  A    between atoms: _409  and  _411
REMARK  172  A    between atoms: _411  and  _412
REMARK  173  A    between atoms: _411  and  _414
REMARK  174  A    between atoms: _414  and  _415
REMARK  175  A    between atoms: _418  and  _420
REMARK  176  A    between atoms: _420  and  _421
REMARK  177  A    between atoms: _423  and  _425
REMARK  178  A    between atoms: _425  and  _426
REMARK  179  A    between atoms: _428  and  _430
REMARK  180  A    between atoms: _430  and  _431
REMARK  181  A    between atoms: _430  and  _433
REMARK  182  A    between atoms: _433  and  _434
REMARK  183  A    between atoms: _437  and  _439
REMARK  184  A    between atoms: _439  and  _440
REMARK  185  A    between atoms: _442  and  _444
REMARK  186  A    between atoms: _444  and  _445
REMARK  187  A    between atoms: _447  and  _449
REMARK  188  A    between atoms: _449  and  _450
REMARK  189  A    between atoms: _449  and  _452
REMARK  190  A    between atoms: _452  and  _453
REMARK  191  A    between atoms: _459  and  _461
REMARK  192  A    between atoms: _461  and  _462
REMARK  193  A    between atoms: _461  and  _464
REMARK  194  A    between atoms: _464  and  _465
REMARK  195  A    between atoms: _468  and  _470
REMARK  196  A    between atoms: _470  and  _471
REMARK  197  A    between atoms: _470  and  _473
REMARK  198  A    between atoms: _473  and  _474
REMARK  199  A    between atoms: _477  and  _479
REMARK  200  A    between atoms: _479  and  _480
REMARK  201  A    between atoms: _479  and  _482
REMARK  202  A    between atoms: _482  and  _483
REMARK  203  A    between atoms: _487  and  _488
REMARK  204  A    between atoms: _493  and  _495
REMARK  205  A    between atoms: _495  and  _496
REMARK  206  A    between atoms: _495  and  _498
REMARK  207  A    between atoms: _501  and  _503
REMARK  208  A    between atoms: _503  and  _504
REMARK  209  A    between atoms: _503  and  _506
REMARK  210  A    between atoms: _506  and  _507
REMARK  211  A    between atoms: _512  and  _514
REMARK  212  A    between atoms: _514  and  _515
REMARK  213  A    between atoms: _514  and  _517
REMARK  214  A    between atoms: _517  and  _518
REMARK  215  A    between atoms: _521  and  _523
REMARK  216  A    between atoms: _523  and  _524
REMARK  217  A    between atoms: _523  and  _526
REMARK  218  A    between atoms: _526  and  _527
REMARK  219  A    between atoms: _530  and  _532
REMARK  220  A    between atoms: _532  and  _533
REMARK  221  A    between atoms: _535  and  _537
REMARK  222  A    between atoms: _537  and  _538
REMARK  223  A    between atoms: _537  and  _540
REMARK  224  A    between atoms: _540  and  _541
REMARK  225  A    between atoms: _541  and  _542
REMARK  226  A    between atoms: _542  and  _543
REMARK  227  A    between atoms: _552  and  _554
REMARK  228  A    between atoms: _554  and  _555
REMARK  229  A    between atoms: _554  and  _557
REMARK  230  A    between atoms: _557  and  _558
REMARK                            x       y       z     vdW  Elec       q    Type
REMARK                         _______ _______ _______ _____ _____    ______ ____
ROOT
ATOM      1  C   GLY A   5       7.503  66.665  17.508  0.00  0.00    +0.243 C 
ATOM      2  N   ILE A   6       8.693  67.033  17.870  0.00  0.00    -0.297 N 
ATOM      3  H   ILE A   6       9.451  66.328  17.970  0.00  0.00    +0.150 HD
ATOM      4  O   GLY A   5       6.517  67.405  17.424  0.00  0.00    -0.273 OA
ENDROOT
BRANCH   1   5
ATOM      5  CA  GLY A   5       7.324  65.188  17.196  0.00  0.00    +0.176 C 
BRANCH   5   8
ATOM      6  C   GLY A   4       5.599  63.931  16.106  0.00  0.00    +0.243 C 
ATOM      7  O   GLY A   4       5.777  62.923  16.780  0.00  0.00    -0.273 OA
ATOM      8  N   GLY A   5       6.312  65.013  16.228  0.00  0.00    -0.295 N 
ATOM      9  H   GLY A   5       6.124  65.797  15.571  0.00  0.00    +0.150 HD
BRANCH   6  10
ATOM     10  CA  GLY A   4       4.557  64.023  15.022  0.00  0.00    +0.176 C 
BRANCH  10  12
ATOM     11  C   ILE A   3       4.174  62.624  13.131  0.00  0.00    +0.241 C 
ATOM     12  N   GLY A   4       4.385  62.699  14.437  0.00  0.00    -0.295 N 
ATOM     13  H   GLY A   4       4.426  61.842  15.025  0.00  0.00    +0.150 HD
ATOM     14  O   ILE A   3       4.326  63.547  12.345  0.00  0.00    -0.273 OA
BRANCH  11  15
ATOM     15  CA  ILE A   3       3.717  61.275  12.590  0.00  0.00    +0.149 C 
BRANCH  15  18
ATOM     16  C   MET A   2       1.665  60.927  11.338  0.00  0.00    +0.241 C 
ATOM     17  O   MET A   2       1.226  60.108  12.167  0.00  0.00    -0.273 OA
ATOM     18  N   ILE A   3       2.845  61.466  11.446  0.00  0.00    -0.297 N 
ATOM     19  H   ILE A   3       3.182  62.068  10.668  0.00  0.00    +0.150 HD
BRANCH  16  20
ATOM     20  CA  MET A   2       0.832  61.273  10.109  0.00  0.00    +0.149 C 
BRANCH  20  22
ATOM     21  C   LYS A   1       0.618  59.597   8.399  0.00  0.00    +0.238 C 
ATOM     22  N   MET A   2       0.259  60.041   9.576  0.00  0.00    -0.297 N 
ATOM     23  H   MET A   2      -0.440  59.512  10.136  0.00  0.00    +0.150 HD
ATOM     24  O   LYS A   1       1.319  60.219   7.586  0.00  0.00    -0.274 OA
BRANCH  21  25
ATOM     25  CA  LYS A   1       0.174  58.202   8.009  0.00  0.00    +0.145 C 
BRANCH  25  26
ATOM     26  N   LYS A   1       0.064  58.125   6.550  0.00  0.00    -0.238 NA
ATOM     27  H   LYS A   1       0.707  58.699   5.968  0.00  0.00    +0.142 HD
ENDBRANCH  25  26
BRANCH  25  28
ATOM     28  CB  LYS A   1       1.188  57.157   8.469  0.00  0.00    +0.026 C 
BRANCH  28  29
ATOM     29  CG  LYS A   1       1.318  56.932   9.951  0.00  0.00    -0.000 C 
BRANCH  29  30
ATOM     30  CD  LYS A   1       2.280  55.816  10.278  0.00  0.00    -0.024 C 
BRANCH  30  31
ATOM     31  CE  LYS A   1       2.511  55.631  11.758  0.00  0.00    -0.086 C 
BRANCH  31  32
ATOM     32  NZ  LYS A   1       1.401  54.877  12.338  0.00  0.00    +0.380 N 
ATOM     33  HZ1 LYS A   1       1.564  54.752  13.357  0.00  0.00    -0.089 HD
ATOM     34  HZ2 LYS A   1       0.514  55.399  12.189  0.00  0.00    -0.089 HD
ATOM     35  HZ3 LYS A   1       1.338  53.946  11.879  0.00  0.00    -0.089 HD
ENDBRANCH  31  32
ENDBRANCH  30  31
ENDBRANCH  29  30
ENDBRANCH  28  29
ENDBRANCH  25  28
ENDBRANCH  21  25
ENDBRANCH  20  22
BRANCH  20  36
ATOM     36  CB  MET A   2      -0.250  62.327  10.306  0.00  0.00    +0.041 C 
BRANCH  36  37
ATOM     37  CG  MET A   2      -0.643  62.863   8.918  0.00  0.00    +0.060 C 
BRANCH  37  38
ATOM     38  SD  MET A   2      -1.731  64.272   9.011  0.00  0.00    -0.139 S 
ATOM     39  CE  MET A   2      -1.687  64.898   7.334  0.00  0.00    +0.069 C 
ENDBRANCH  37  38
ENDBRANCH  36  37
ENDBRANCH  20  36
ENDBRANCH  16  20
ENDBRANCH  15  18
BRANCH  15  40
ATOM     40  CB  ILE A   3       4.946  60.377  12.318  0.00  0.00    +0.027 C 
ATOM     41  CG2 ILE A   3       4.545  58.949  12.033  0.00  0.00    +0.002 C 
BRANCH  40  42
ATOM     42  CG1 ILE A   3       5.816  60.948  11.210  0.00  0.00    +0.002 C 
ATOM     43  CD1 ILE A   3       7.175  60.287  11.051  0.00  0.00    +0.000 C 
ENDBRANCH  40  42
ENDBRANCH  15  40
ENDBRANCH  11  15
ENDBRANCH  10  12
ENDBRANCH   6  10
ENDBRANCH   5   8
ENDBRANCH   1   5
BRANCH   2  44
ATOM     44  CA  ILE A   6       8.958  68.434  18.134  0.00  0.00    +0.149 C 
BRANCH  44  45
ATOM     45  C   ILE A   6       8.780  69.143  16.810  0.00  0.00    +0.241 C 
ATOM     46  N   GLY A   7       8.047  70.217  16.854  0.00  0.00    -0.295 N 
ATOM     47  H   GLY A   7       7.730  70.512  17.799  0.00  0.00    +0.150 HD
ATOM     48  O   ILE A   6       9.255  68.751  15.752  0.00  0.00    -0.273 OA
BRANCH  46  49
ATOM     49  CA  GLY A   7       7.635  71.019  15.797  0.00  0.00    +0.176 C 
BRANCH  49  50
ATOM     50  C   GLY A   7       6.398  70.569  15.069  0.00  0.00    +0.243 C 
ATOM     51  N   GLY A   8       5.743  69.500  15.495  0.00  0.00    -0.295 N 
ATOM     52  H   GLY A   8       6.134  68.940  16.280  0.00  0.00    +0.150 HD
ATOM     53  O   GLY A   7       6.069  71.246  14.107  0.00  0.00    -0.273 OA
BRANCH  51  54
ATOM     54  CA  GLY A   8       4.485  69.094  14.884  0.00  0.00    +0.176 C 
BRANCH  54  55
ATOM     55  C   GLY A   8       4.556  67.837  14.052  0.00  0.00    +0.243 C 
ATOM     56  O   GLY A   8       5.440  67.023  14.258  0.00  0.00    -0.273 OA
ATOM     57  N   PHE A   9       3.566  67.709  13.157  0.00  0.00    -0.297 N 
ATOM     58  H   PHE A   9       2.903  68.498  13.016  0.00  0.00    +0.150 HD
BRANCH  57  59
ATOM     59  CA  PHE A   9       3.398  66.493  12.379  0.00  0.00    +0.153 C 
BRANCH  59  60
ATOM     60  C   PHE A   9       3.789  66.654  10.914  0.00  0.00    +0.241 C 
ATOM     61  N   ILE A  10       4.190  65.532  10.345  0.00  0.00    -0.298 N 
ATOM     62  H   ILE A  10       4.357  64.703  10.951  0.00  0.00    +0.150 HD
ATOM     63  O   PHE A   9       3.709  67.762  10.340  0.00  0.00    -0.273 OA
BRANCH  61  64
ATOM     64  CA  ILE A  10       4.410  65.396   8.909  0.00  0.00    +0.137 C 
BRANCH  64  65
ATOM     65  CB  ILE A  10       5.901  65.241   8.500  0.00  0.00    +0.026 C 
ATOM     66  CG2 ILE A  10       6.678  66.508   8.830  0.00  0.00    +0.002 C 
BRANCH  65  67
ATOM     67  CG1 ILE A  10       6.560  63.997   9.072  0.00  0.00    +0.002 C 
ATOM     68  CD1 ILE A  10       7.901  63.631   8.399  0.00  0.00    +0.000 C 
ENDBRANCH  65  67
ENDBRANCH  64  65
BRANCH  64  69
ATOM     69  C   ILE A  10       3.613  64.203   8.386  0.00  0.00    +0.227 C 
ATOM     70  O   ILE A  10       3.356  63.244   9.087  0.00  0.00    -0.286 OA
ENDBRANCH  64  69
ENDBRANCH  61  64
ENDBRANCH  59  60
BRANCH  59  71
ATOM     71  CB  PHE A   9       1.942  66.053  12.436  0.00  0.00    +0.055 C 
BRANCH  71  72
ATOM     72  CG  PHE A   9       1.505  65.443  13.744  0.00  0.00    -0.020 A 
ATOM     73  CD2 PHE A   9       1.268  66.258  14.842  0.00  0.00    -0.004 A 
ATOM     74  CE2 PHE A   9       0.875  65.726  16.046  0.00  0.00    -0.000 A 
ATOM     75  CZ  PHE A   9       0.739  64.364  16.162  0.00  0.00    -0.000 A 
ATOM     76  CE1 PHE A   9       0.959  63.535  15.094  0.00  0.00    -0.000 A 
ATOM     77  CD1 PHE A   9       1.295  64.089  13.863  0.00  0.00    -0.004 A 
ENDBRANCH  71  72
ENDBRANCH  59  71
ENDBRANCH  57  59
ENDBRANCH  54  55
ENDBRANCH  51  54
ENDBRANCH  49  50
ENDBRANCH  46  49
ENDBRANCH  44  45
BRANCH  44  78
ATOM     78  CB  ILE A   6      10.349  68.585  18.752  0.00  0.00    +0.027 C 
ATOM     79  CG2 ILE A   6      10.950  69.949  18.576  0.00  0.00    +0.002 C 
BRANCH  78  80
ATOM     80  CG1 ILE A   6      10.456  68.154  20.258  0.00  0.00    +0.002 C 
ATOM     81  CD1 ILE A   6      11.776  68.048  20.894  0.00  0.00    +0.000 C 
ENDBRANCH  78  80
ENDBRANCH  44  78
ENDBRANCH   2  44
TORSDOF 36
REMARK  Name = ../refined-set-2016/3bvb/3bvb_pocket.pdb
REMARK  230 active torsions:
REMARK  status: ('A' for Active; 'I' for Inactive)
REMARK    1  A    between atoms: _1  and  _3
REMARK    2  A    between atoms: _3  and  _4
REMARK    3  A    between atoms: _3  and  _6
REMARK    4  A    between atoms: _6  and  _7
REMARK    5  A    between atoms: _7  and  _8
REMARK    6  A    between atoms: _8  and  _9
REMARK    7  A    between atoms: _18  and  _20
REMARK    8  A    between atoms: _20  and  _21
REMARK    9  A    between atoms: _20  and  _23
REMARK   10  A    between atoms: _23  and  _24
REMARK   11  A    between atoms: _27  and  _29
REMARK   12  A    between atoms: _29  and  _30
REMARK   13  A    between atoms: _29  and  _32
REMARK   14  A    between atoms: _32  and  _33
REMARK   15  A    between atoms: _36  and  _38
REMARK   16  A    between atoms: _38  and  _39
REMARK   17  A    between atoms: _38  and  _41
REMARK   18  A    between atoms: _41  and  _42
REMARK   19  A    between atoms: _47  and  _49
REMARK   20  A    between atoms: _49  and  _50
REMARK   21  A    between atoms: _49  and  _52
REMARK   22  A    between atoms: _52  and  _53
REMARK   23  A    between atoms: _56  and  _58
REMARK   24  A    between atoms: _58  and  _59
REMARK   25  A    between atoms: _61  and  _63
REMARK   26  A    between atoms: _63  and  _64
REMARK   27  A    between atoms: _67  and  _69
REMARK   28  A    between atoms: _69  and  _70
REMARK   29  A    between atoms: _69  and  _72
REMARK   30  A    between atoms: _72  and  _73
REMARK   31  A    between atoms: _76  and  _78
REMARK   32  A    between atoms: _78  and  _79
REMARK   33  A    between atoms: _78  and  _81
REMARK   34  A    between atoms: _81  and  _82
REMARK   35  A    between atoms: _85  and  _87
REMARK   36  A    between atoms: _87  and  _88
REMARK   37  A    between atoms: _87  and  _90
REMARK   38  A    between atoms: _90  and  _91
REMARK   39  A    between atoms: _94  and  _96
REMARK   40  A    between atoms: _96  and  _97
REMARK   41  A    between atoms: _96  and  _99
REMARK   42  A    between atoms: _102  and  _104
REMARK   43  A    between atoms: _104  and  _105
REMARK   44  A    between atoms: _104  and  _107
REMARK   45  A    between atoms: _107  and  _108
REMARK   46  A    between atoms: _108  and  _109
REMARK   47  A    between atoms: _109  and  _110
REMARK   48  A    between atoms: _110  and  _111
REMARK   49  A    between atoms: _115  and  _117
REMARK   50  A    between atoms: _117  and  _118
REMARK   51  A    between atoms: _117  and  _120
REMARK   52  A    between atoms: _120  and  _121
REMARK   53  A    between atoms: _121  and  _122
REMARK   54  A    between atoms: _124  and  _126
REMARK   55  A    between atoms: _126  and  _127
REMARK   56  A    between atoms: _126  and  _129
REMARK   57  A    between atoms: _129  and  _130
REMARK   58  A    between atoms: _133  and  _135
REMARK   59  A    between atoms: _135  and  _136
REMARK   60  A    between atoms: _138  and  _140
REMARK   61  A    between atoms: _140  and  _141
REMARK   62  A    between atoms: _143  and  _145
REMARK   63  A    between atoms: _145  and  _146
REMARK   64  A    between atoms: _145  and  _148
REMARK   65  A    between atoms: _148  and  _149
REMARK   66  A    between atoms: _152  and  _154
REMARK   67  A    between atoms: _154  and  _155
REMARK   68  A    between atoms: _157  and  _159
REMARK   69  A    between atoms: _159  and  _160
REMARK   70  A    between atoms: _162  and  _164
REMARK   71  A    between atoms: _164  and  _165
REMARK   72  A    between atoms: _164  and  _167
REMARK   73  A    between atoms: _167  and  _168
REMARK   74  A    between atoms: _174  and  _176
REMARK   75  A    between atoms: _176  and  _177
REMARK   76  A    between atoms: _176  and  _179
REMARK   77  A    between atoms: _179  and  _180
REMARK   78  A    between atoms: _183  and  _185
REMARK   79  A    between atoms: _185  and  _186
REMARK   80  A    between atoms: _185  and  _188
REMARK   81  A    between atoms: _191  and  _193
REMARK   82  A    between atoms: _193  and  _194
REMARK   83  A    between atoms: _193  and  _196
REMARK   84  A    between atoms: _196  and  _197
REMARK   85  A    between atoms: _200  and  _202
REMARK   86  A    between atoms: _202  and  _203
REMARK   87  A    between atoms: _202  and  _205
REMARK   88  A    between atoms: _205  and  _206
REMARK   89  A    between atoms: _210  and  _211
REMARK   90  A    between atoms: _216  and  _218
REMARK   91  A    between atoms: _218  and  _219
REMARK   92  A    between atoms: _218  and  _221
REMARK   93  A    between atoms: _224  and  _226
REMARK   94  A    between atoms: _226  and  _227
REMARK   95  A    between atoms: _226  and  _229
REMARK   96  A    between atoms: _229  and  _230
REMARK   97  A    between atoms: _235  and  _237
REMARK   98  A    between atoms: _237  and  _238
REMARK   99  A    between atoms: _237  and  _240
REMARK  100  A    between atoms: _240  and  _241
REMARK  101  A    between atoms: _240  and  _242
REMARK  102  A    between atoms: _244  and  _246
REMARK  103  A    between atoms: _246  and  _247
REMARK  104  A    between atoms: _246  and  _249
REMARK  105  A    between atoms: _249  and  _250
REMARK  106  A    between atoms: _253  and  _255
REMARK  107  A    between atoms: _255  and  _256
REMARK  108  A    between atoms: _258  and  _260
REMARK  109  A    between atoms: _260  and  _261
REMARK  110  A    between atoms: _260  and  _263
REMARK  111  A    between atoms: _263  and  _264
REMARK  112  A    between atoms: _264  and  _265
REMARK  113  A    between atoms: _265  and  _266
REMARK  114  A    between atoms: _275  and  _277
REMARK  115  A    between atoms: _277  and  _278
REMARK  116  A    between atoms: _277  and  _280
REMARK  117  A    between atoms: _280  and  _281
REMARK  118  A    between atoms: _286  and  _288
REMARK  119  A    between atoms: _288  and  _289
REMARK  120  A    between atoms: _288  and  _291
REMARK  121  A    between atoms: _291  and  _292
REMARK  122  A    between atoms: _292  and  _293
REMARK  123  A    between atoms: _293  and  _294
REMARK  124  A    between atoms: _303  and  _305
REMARK  125  A    between atoms: _305  and  _306
REMARK  126  A    between atoms: _305  and  _308
REMARK  127  A    between atoms: _308  and  _309
REMARK  128  A    between atoms: _312  and  _314
REMARK  129  A    between atoms: _314  and  _315
REMARK  130  A    between atoms: _314  and  _317
REMARK  131  A    between atoms: _317  and  _318
REMARK  132  A    between atoms: _321  and  _323
REMARK  133  A    between atoms: _323  and  _324
REMARK  134  A    between atoms: _323  and  _326
REMARK  135  A    between atoms: _326  and  _327
REMARK  136  A    between atoms: _332  and  _334
REMARK  137  A    between atoms: _334  and  _335
REMARK  138  A    between atoms: _334  and  _337
REMARK  139  A    between atoms: _337  and  _338
REMARK  140  A    between atoms: _341  and  _343
REMARK  141  A    between atoms: _343  and  _344
REMARK  142  A    between atoms: _346  and  _348
REMARK  143  A    between atoms: _348  and  _349
REMARK  144  A    between atoms: _352  and  _354
REMARK  145  A    between atoms: _354  and  _355
REMARK  146  A    between atoms: _354  and  _357
REMARK  147  A    between atoms: _357  and  _358
REMARK  148  A    between atoms: _361  and  _363
REMARK  149  A    between atoms: _363  and  _364
REMARK  150  A    between atoms: _363  and  _366
REMARK  151  A    between atoms: _366  and  _367
REMARK  152  A    between atoms: _370  and  _372
REMARK  153  A    between atoms: _372  and  _373
REMARK  154  A    between atoms: _372  and  _375
REMARK  155  A    between atoms: _375  and  _376
REMARK  156  A    between atoms: _379  and  _381
REMARK  157  A    between atoms: _381  and  _382
REMARK  158  A    between atoms: _381  and  _384
REMARK  159  A    between atoms: _387  and  _389
REMARK  160  A    between atoms: _389  and  _390
REMARK  161  A    between atoms: _389  and  _392
REMARK  162  A    between atoms: _392  and  _393
REMARK  163  A    between atoms: _393  and  _394
REMARK  164  A    between atoms: _394  and  _395
REMARK  165  A    between atoms: _395  and  _396
REMARK  166  A    between atoms: _400  and  _402
REMARK  167  A    between atoms: _402  and  _403
REMARK  168  A    between atoms: _402  and  _405
REMARK  169  A    between atoms: _405  and  _406
REMARK  170  A    between atoms: _406  and  _407
REMARK  171  A    between atoms: _409  and  _411
REMARK  172  A    between atoms: _411  and  _412
REMARK  173  A    between atoms: _411  and  _414
REMARK  174  A    between atoms: _414  and  _415
REMARK  175  A    between atoms: _418  and  _420
REMARK  176  A    between atoms: _420  and  _421
REMARK  177  A    between atoms: _423  and  _425
REMARK  178  A    between atoms: _425  and  _426
REMARK  179  A    between atoms: _428  and  _430
REMARK  180  A    between atoms: _430  and  _431
REMARK  181  A    between atoms: _430  and  _433
REMARK  182  A    between atoms: _433  and  _434
REMARK  183  A    between atoms: _437  and  _439
REMARK  184  A    between atoms: _439  and  _440
REMARK  185  A    between atoms: _442  and  _444
REMARK  186  A    between atoms: _444  and  _445
REMARK  187  A    between atoms: _447  and  _449
REMARK  188  A    between atoms: _449  and  _450
REMARK  189  A    between atoms: _449  and  _452
REMARK  190  A    between atoms: _452  and  _453
REMARK  191  A    between atoms: _459  and  _461
REMARK  192  A    between atoms: _461  and  _462
REMARK  193  A    between atoms: _461  and  _464
REMARK  194  A    between atoms: _464  and  _465
REMARK  195  A    between atoms: _468  and  _470
REMARK  196  A    between atoms: _470  and  _471
REMARK  197  A    between atoms: _470  and  _473
REMARK  198  A    between atoms: _473  and  _474
REMARK  199  A    between atoms: _477  and  _479
REMARK  200  A    between atoms: _479  and  _480
REMARK  201  A    between atoms: _479  and  _482
REMARK  202  A    between atoms: _482  and  _483
REMARK  203  A    between atoms: _487  and  _488
REMARK  204  A    between atoms: _493  and  _495
REMARK  205  A    between atoms: _495  and  _496
REMARK  206  A    between atoms: _495  and  _498
REMARK  207  A    between atoms: _501  and  _503
REMARK  208  A    between atoms: _503  and  _504
REMARK  209  A    between atoms: _503  and  _506
REMARK  210  A    between atoms: _506  and  _507
REMARK  211  A    between atoms: _512  and  _514
REMARK  212  A    between atoms: _514  and  _515
REMARK  213  A    between atoms: _514  and  _517
REMARK  214  A    between atoms: _517  and  _518
REMARK  215  A    between atoms: _521  and  _523
REMARK  216  A    between atoms: _523  and  _524
REMARK  217  A    between atoms: _523  and  _526
REMARK  218  A    between atoms: _526  and  _527
REMARK  219  A    between atoms: _530  and  _532
REMARK  220  A    between atoms: _532  and  _533
REMARK  221  A    between atoms: _535  and  _537
REMARK  222  A    between atoms: _537  and  _538
REMARK  223  A    between atoms: _537  and  _540
REMARK  224  A    between atoms: _540  and  _541
REMARK  225  A    between atoms: _541  and  _542
REMARK  226  A    between atoms: _542  and  _543
REMARK  227  A    between atoms: _552  and  _554
REMARK  228  A    between atoms: _554  and  _555
REMARK  229  A    between atoms: _554  and  _557
REMARK  230  A    between atoms: _557  and  _558
REMARK                            x       y       z     vdW  Elec       q    Type
REMARK                         _______ _______ _______ _____ _____    ______ ____
ROOT
ATOM      1  CA  VAL A   1       4.424  60.046   5.389  0.00  0.00    +0.133 C 
ENDROOT
BRANCH   1   2
ATOM      2  CB  VAL A   1       5.286  59.441   6.488  0.00  0.00    +0.023 C 
ATOM      3  CG2 VAL A   1       4.438  58.723   7.537  0.00  0.00    +0.002 C 
ATOM      4  CG1 VAL A   1       6.163  60.483   7.158  0.00  0.00    +0.002 C 
ENDBRANCH   1   2
BRANCH   1   5
ATOM      5  N   VAL A   1       3.496  61.035   5.952  0.00  0.00    -0.239 NA
ATOM      6  H   VAL A   1       2.694  60.699   6.522  0.00  0.00    +0.142 HD
ENDBRANCH   1   5
BRANCH   1   7
ATOM      7  C   VAL A   1       3.651  58.959   4.668  0.00  0.00    +0.224 C 
ATOM      8  O   VAL A   1       2.445  58.816   4.853  0.00  0.00    -0.287 OA
ENDBRANCH   1   7
TORSDOF 3
REMARK  Name = ../refined-set-2016/3bvb/3bvb_pocket.pdb
REMARK  230 active torsions:
REMARK  status: ('A' for Active; 'I' for Inactive)
REMARK    1  A    between atoms: _1  and  _3
REMARK    2  A    between atoms: _3  and  _4
REMARK    3  A    between atoms: _3  and  _6
REMARK    4  A    between atoms: _6  and  _7
REMARK    5  A    between atoms: _7  and  _8
REMARK    6  A    between atoms: _8  and  _9
REMARK    7  A    between atoms: _18  and  _20
REMARK    8  A    between atoms: _20  and  _21
REMARK    9  A    between atoms: _20  and  _23
REMARK   10  A    between atoms: _23  and  _24
REMARK   11  A    between atoms: _27  and  _29
REMARK   12  A    between atoms: _29  and  _30
REMARK   13  A    between atoms: _29  and  _32
REMARK   14  A    between atoms: _32  and  _33
REMARK   15  A    between atoms: _36  and  _38
REMARK   16  A    between atoms: _38  and  _39
REMARK   17  A    between atoms: _38  and  _41
REMARK   18  A    between atoms: _41  and  _42
REMARK   19  A    between atoms: _47  and  _49
REMARK   20  A    between atoms: _49  and  _50
REMARK   21  A    between atoms: _49  and  _52
REMARK   22  A    between atoms: _52  and  _53
REMARK   23  A    between atoms: _56  and  _58
REMARK   24  A    between atoms: _58  and  _59
REMARK   25  A    between atoms: _61  and  _63
REMARK   26  A    between atoms: _63  and  _64
REMARK   27  A    between atoms: _67  and  _69
REMARK   28  A    between atoms: _69  and  _70
REMARK   29  A    between atoms: _69  and  _72
REMARK   30  A    between atoms: _72  and  _73
REMARK   31  A    between atoms: _76  and  _78
REMARK   32  A    between atoms: _78  and  _79
REMARK   33  A    between atoms: _78  and  _81
REMARK   34  A    between atoms: _81  and  _82
REMARK   35  A    between atoms: _85  and  _87
REMARK   36  A    between atoms: _87  and  _88
REMARK   37  A    between atoms: _87  and  _90
REMARK   38  A    between atoms: _90  and  _91
REMARK   39  A    between atoms: _94  and  _96
REMARK   40  A    between atoms: _96  and  _97
REMARK   41  A    between atoms: _96  and  _99
REMARK   42  A    between atoms: _102  and  _104
REMARK   43  A    between atoms: _104  and  _105
REMARK   44  A    between atoms: _104  and  _107
REMARK   45  A    between atoms: _107  and  _108
REMARK   46  A    between atoms: _108  and  _109
REMARK   47  A    between atoms: _109  and  _110
REMARK   48  A    between atoms: _110  and  _111
REMARK   49  A    between atoms: _115  and  _117
REMARK   50  A    between atoms: _117  and  _118
REMARK   51  A    between atoms: _117  and  _120
REMARK   52  A    between atoms: _120  and  _121
REMARK   53  A    between atoms: _121  and  _122
REMARK   54  A    between atoms: _124  and  _126
REMARK   55  A    between atoms: _126  and  _127
REMARK   56  A    between atoms: _126  and  _129
REMARK   57  A    between atoms: _129  and  _130
REMARK   58  A    between atoms: _133  and  _135
REMARK   59  A    between atoms: _135  and  _136
REMARK   60  A    between atoms: _138  and  _140
REMARK   61  A    between atoms: _140  and  _141
REMARK   62  A    between atoms: _143  and  _145
REMARK   63  A    between atoms: _145  and  _146
REMARK   64  A    between atoms: _145  and  _148
REMARK   65  A    between atoms: _148  and  _149
REMARK   66  A    between atoms: _152  and  _154
REMARK   67  A    between atoms: _154  and  _155
REMARK   68  A    between atoms: _157  and  _159
REMARK   69  A    between atoms: _159  and  _160
REMARK   70  A    between atoms: _162  and  _164
REMARK   71  A    between atoms: _164  and  _165
REMARK   72  A    between atoms: _164  and  _167
REMARK   73  A    between atoms: _167  and  _168
REMARK   74  A    between atoms: _174  and  _176
REMARK   75  A    between atoms: _176  and  _177
REMARK   76  A    between atoms: _176  and  _179
REMARK   77  A    between atoms: _179  and  _180
REMARK   78  A    between atoms: _183  and  _185
REMARK   79  A    between atoms: _185  and  _186
REMARK   80  A    between atoms: _185  and  _188
REMARK   81  A    between atoms: _191  and  _193
REMARK   82  A    between atoms: _193  and  _194
REMARK   83  A    between atoms: _193  and  _196
REMARK   84  A    between atoms: _196  and  _197
REMARK   85  A    between atoms: _200  and  _202
REMARK   86  A    between atoms: _202  and  _203
REMARK   87  A    between atoms: _202  and  _205
REMARK   88  A    between atoms: _205  and  _206
REMARK   89  A    between atoms: _210  and  _211
REMARK   90  A    between atoms: _216  and  _218
REMARK   91  A    between atoms: _218  and  _219
REMARK   92  A    between atoms: _218  and  _221
REMARK   93  A    between atoms: _224  and  _226
REMARK   94  A    between atoms: _226  and  _227
REMARK   95  A    between atoms: _226  and  _229
REMARK   96  A    between atoms: _229  and  _230
REMARK   97  A    between atoms: _235  and  _237
REMARK   98  A    between atoms: _237  and  _238
REMARK   99  A    between atoms: _237  and  _240
REMARK  100  A    between atoms: _240  and  _241
REMARK  101  A    between atoms: _240  and  _242
REMARK  102  A    between atoms: _244  and  _246
REMARK  103  A    between atoms: _246  and  _247
REMARK  104  A    between atoms: _246  and  _249
REMARK  105  A    between atoms: _249  and  _250
REMARK  106  A    between atoms: _253  and  _255
REMARK  107  A    between atoms: _255  and  _256
REMARK  108  A    between atoms: _258  and  _260
REMARK  109  A    between atoms: _260  and  _261
REMARK  110  A    between atoms: _260  and  _263
REMARK  111  A    between atoms: _263  and  _264
REMARK  112  A    between atoms: _264  and  _265
REMARK  113  A    between atoms: _265  and  _266
REMARK  114  A    between atoms: _275  and  _277
REMARK  115  A    between atoms: _277  and  _278
REMARK  116  A    between atoms: _277  and  _280
REMARK  117  A    between atoms: _280  and  _281
REMARK  118  A    between atoms: _286  and  _288
REMARK  119  A    between atoms: _288  and  _289
REMARK  120  A    between atoms: _288  and  _291
REMARK  121  A    between atoms: _291  and  _292
REMARK  122  A    between atoms: _292  and  _293
REMARK  123  A    between atoms: _293  and  _294
REMARK  124  A    between atoms: _303  and  _305
REMARK  125  A    between atoms: _305  and  _306
REMARK  126  A    between atoms: _305  and  _308
REMARK  127  A    between atoms: _308  and  _309
REMARK  128  A    between atoms: _312  and  _314
REMARK  129  A    between atoms: _314  and  _315
REMARK  130  A    between atoms: _314  and  _317
REMARK  131  A    between atoms: _317  and  _318
REMARK  132  A    between atoms: _321  and  _323
REMARK  133  A    between atoms: _323  and  _324
REMARK  134  A    between atoms: _323  and  _326
REMARK  135  A    between atoms: _326  and  _327
REMARK  136  A    between atoms: _332  and  _334
REMARK  137  A    between atoms: _334  and  _335
REMARK  138  A    between atoms: _334  and  _337
REMARK  139  A    between atoms: _337  and  _338
REMARK  140  A    between atoms: _341  and  _343
REMARK  141  A    between atoms: _343  and  _344
REMARK  142  A    between atoms: _346  and  _348
REMARK  143  A    between atoms: _348  and  _349
REMARK  144  A    between atoms: _352  and  _354
REMARK  145  A    between atoms: _354  and  _355
REMARK  146  A    between atoms: _354  and  _357
REMARK  147  A    between atoms: _357  and  _358
REMARK  148  A    between atoms: _361  and  _363
REMARK  149  A    between atoms: _363  and  _364
REMARK  150  A    between atoms: _363  and  _366
REMARK  151  A    between atoms: _366  and  _367
REMARK  152  A    between atoms: _370  and  _372
REMARK  153  A    between atoms: _372  and  _373
REMARK  154  A    between atoms: _372  and  _375
REMARK  155  A    between atoms: _375  and  _376
REMARK  156  A    between atoms: _379  and  _381
REMARK  157  A    between atoms: _381  and  _382
REMARK  158  A    between atoms: _381  and  _384
REMARK  159  A    between atoms: _387  and  _389
REMARK  160  A    between atoms: _389  and  _390
REMARK  161  A    between atoms: _389  and  _392
REMARK  162  A    between atoms: _392  and  _393
REMARK  163  A    between atoms: _393  and  _394
REMARK  164  A    between atoms: _394  and  _395
REMARK  165  A    between atoms: _395  and  _396
REMARK  166  A    between atoms: _400  and  _402
REMARK  167  A    between atoms: _402  and  _403
REMARK  168  A    between atoms: _402  and  _405
REMARK  169  A    between atoms: _405  and  _406
REMARK  170  A    between atoms: _406  and  _407
REMARK  171  A    between atoms: _409  and  _411
REMARK  172  A    between atoms: _411  and  _412
REMARK  173  A    between atoms: _411  and  _414
REMARK  174  A    between atoms: _414  and  _415
REMARK  175  A    between atoms: _418  and  _420
REMARK  176  A    between atoms: _420  and  _421
REMARK  177  A    between atoms: _423  and  _425
REMARK  178  A    between atoms: _425  and  _426
REMARK  179  A    between atoms: _428  and  _430
REMARK  180  A    between atoms: _430  and  _431
REMARK  181  A    between atoms: _430  and  _433
REMARK  182  A    between atoms: _433  and  _434
REMARK  183  A    between atoms: _437  and  _439
REMARK  184  A    between atoms: _439  and  _440
REMARK  185  A    between atoms: _442  and  _444
REMARK  186  A    between atoms: _444  and  _445
REMARK  187  A    between atoms: _447  and  _449
REMARK  188  A    between atoms: _449  and  _450
REMARK  189  A    between atoms: _449  and  _452
REMARK  190  A    between atoms: _452  and  _453
REMARK  191  A    between atoms: _459  and  _461
REMARK  192  A    between atoms: _461  and  _462
REMARK  193  A    between atoms: _461  and  _464
REMARK  194  A    between atoms: _464  and  _465
REMARK  195  A    between atoms: _468  and  _470
REMARK  196  A    between atoms: _470  and  _471
REMARK  197  A    between atoms: _470  and  _473
REMARK  198  A    between atoms: _473  and  _474
REMARK  199  A    between atoms: _477  and  _479
REMARK  200  A    between atoms: _479  and  _480
REMARK  201  A    between atoms: _479  and  _482
REMARK  202  A    between atoms: _482  and  _483
REMARK  203  A    between atoms: _487  and  _488
REMARK  204  A    between atoms: _493  and  _495
REMARK  205  A    between atoms: _495  and  _496
REMARK  206  A    between atoms: _495  and  _498
REMARK  207  A    between atoms: _501  and  _503
REMARK  208  A    between atoms: _503  and  _504
REMARK  209  A    between atoms: _503  and  _506
REMARK  210  A    between atoms: _506  and  _507
REMARK  211  A    between atoms: _512  and  _514
REMARK  212  A    between atoms: _514  and  _515
REMARK  213  A    between atoms: _514  and  _517
REMARK  214  A    between atoms: _517  and  _518
REMARK  215  A    between atoms: _521  and  _523
REMARK  216  A    between atoms: _523  and  _524
REMARK  217  A    between atoms: _523  and  _526
REMARK  218  A    between atoms: _526  and  _527
REMARK  219  A    between atoms: _530  and  _532
REMARK  220  A    between atoms: _532  and  _533
REMARK  221  A    between atoms: _535  and  _537
REMARK  222  A    between atoms: _537  and  _538
REMARK  223  A    between atoms: _537  and  _540
REMARK  224  A    between atoms: _540  and  _541
REMARK  225  A    between atoms: _541  and  _542
REMARK  226  A    between atoms: _542  and  _543
REMARK  227  A    between atoms: _552  and  _554
REMARK  228  A    between atoms: _554  and  _555
REMARK  229  A    between atoms: _554  and  _557
REMARK  230  A    between atoms: _557  and  _558
REMARK                            x       y       z     vdW  Elec       q    Type
REMARK                         _______ _______ _______ _____ _____    ______ ____
ROOT
ATOM      1  CA  LEU A   1       7.816  55.465   6.700  0.00  0.00    +0.133 C 
ENDROOT
BRANCH   1   2
ATOM      2  N   LEU A   1       8.575  54.275   7.044  0.00  0.00    -0.239 NA
ATOM      3  H   LEU A   1       9.233  54.324   7.848  0.00  0.00    +0.142 HD
ENDBRANCH   1   2
BRANCH   1   4
ATOM      4  C   LEU A   1       8.677  56.360   5.827  0.00  0.00    +0.224 C 
ATOM      5  O   LEU A   1       9.870  56.524   6.105  0.00  0.00    -0.287 OA
ENDBRANCH   1   4
BRANCH   1   6
ATOM      6  CB  LEU A   1       7.437  56.207   7.967  0.00  0.00    +0.025 C 
BRANCH   6   7
ATOM      7  CG  LEU A   1       6.726  55.363   9.038  0.00  0.00    +0.002 C 
ATOM      8  CD2 LEU A   1       6.336  56.228  10.231  0.00  0.00    +0.000 C 
ATOM      9  CD1 LEU A   1       5.527  54.673   8.481  0.00  0.00    +0.000 C 
ENDBRANCH   6   7
ENDBRANCH   1   6
TORSDOF 4
REMARK  Name = ../refined-set-2016/3bvb/3bvb_pocket.pdb
REMARK  230 active torsions:
REMARK  status: ('A' for Active; 'I' for Inactive)
REMARK    1  A    between atoms: _1  and  _3
REMARK    2  A    between atoms: _3  and  _4
REMARK    3  A    between atoms: _3  and  _6
REMARK    4  A    between atoms: _6  and  _7
REMARK    5  A    between atoms: _7  and  _8
REMARK    6  A    between atoms: _8  and  _9
REMARK    7  A    between atoms: _18  and  _20
REMARK    8  A    between atoms: _20  and  _21
REMARK    9  A    between atoms: _20  and  _23
REMARK   10  A    between atoms: _23  and  _24
REMARK   11  A    between atoms: _27  and  _29
REMARK   12  A    between atoms: _29  and  _30
REMARK   13  A    between atoms: _29  and  _32
REMARK   14  A    between atoms: _32  and  _33
REMARK   15  A    between atoms: _36  and  _38
REMARK   16  A    between atoms: _38  and  _39
REMARK   17  A    between atoms: _38  and  _41
REMARK   18  A    between atoms: _41  and  _42
REMARK   19  A    between atoms: _47  and  _49
REMARK   20  A    between atoms: _49  and  _50
REMARK   21  A    between atoms: _49  and  _52
REMARK   22  A    between atoms: _52  and  _53
REMARK   23  A    between atoms: _56  and  _58
REMARK   24  A    between atoms: _58  and  _59
REMARK   25  A    between atoms: _61  and  _63
REMARK   26  A    between atoms: _63  and  _64
REMARK   27  A    between atoms: _67  and  _69
REMARK   28  A    between atoms: _69  and  _70
REMARK   29  A    between atoms: _69  and  _72
REMARK   30  A    between atoms: _72  and  _73
REMARK   31  A    between atoms: _76  and  _78
REMARK   32  A    between atoms: _78  and  _79
REMARK   33  A    between atoms: _78  and  _81
REMARK   34  A    between atoms: _81  and  _82
REMARK   35  A    between atoms: _85  and  _87
REMARK   36  A    between atoms: _87  and  _88
REMARK   37  A    between atoms: _87  and  _90
REMARK   38  A    between atoms: _90  and  _91
REMARK   39  A    between atoms: _94  and  _96
REMARK   40  A    between atoms: _96  and  _97
REMARK   41  A    between atoms: _96  and  _99
REMARK   42  A    between atoms: _102  and  _104
REMARK   43  A    between atoms: _104  and  _105
REMARK   44  A    between atoms: _104  and  _107
REMARK   45  A    between atoms: _107  and  _108
REMARK   46  A    between atoms: _108  and  _109
REMARK   47  A    between atoms: _109  and  _110
REMARK   48  A    between atoms: _110  and  _111
REMARK   49  A    between atoms: _115  and  _117
REMARK   50  A    between atoms: _117  and  _118
REMARK   51  A    between atoms: _117  and  _120
REMARK   52  A    between atoms: _120  and  _121
REMARK   53  A    between atoms: _121  and  _122
REMARK   54  A    between atoms: _124  and  _126
REMARK   55  A    between atoms: _126  and  _127
REMARK   56  A    between atoms: _126  and  _129
REMARK   57  A    between atoms: _129  and  _130
REMARK   58  A    between atoms: _133  and  _135
REMARK   59  A    between atoms: _135  and  _136
REMARK   60  A    between atoms: _138  and  _140
REMARK   61  A    between atoms: _140  and  _141
REMARK   62  A    between atoms: _143  and  _145
REMARK   63  A    between atoms: _145  and  _146
REMARK   64  A    between atoms: _145  and  _148
REMARK   65  A    between atoms: _148  and  _149
REMARK   66  A    between atoms: _152  and  _154
REMARK   67  A    between atoms: _154  and  _155
REMARK   68  A    between atoms: _157  and  _159
REMARK   69  A    between atoms: _159  and  _160
REMARK   70  A    between atoms: _162  and  _164
REMARK   71  A    between atoms: _164  and  _165
REMARK   72  A    between atoms: _164  and  _167
REMARK   73  A    between atoms: _167  and  _168
REMARK   74  A    between atoms: _174  and  _176
REMARK   75  A    between atoms: _176  and  _177
REMARK   76  A    between atoms: _176  and  _179
REMARK   77  A    between atoms: _179  and  _180
REMARK   78  A    between atoms: _183  and  _185
REMARK   79  A    between atoms: _185  and  _186
REMARK   80  A    between atoms: _185  and  _188
REMARK   81  A    between atoms: _191  and  _193
REMARK   82  A    between atoms: _193  and  _194
REMARK   83  A    between atoms: _193  and  _196
REMARK   84  A    between atoms: _196  and  _197
REMARK   85  A    between atoms: _200  and  _202
REMARK   86  A    between atoms: _202  and  _203
REMARK   87  A    between atoms: _202  and  _205
REMARK   88  A    between atoms: _205  and  _206
REMARK   89  A    between atoms: _210  and  _211
REMARK   90  A    between atoms: _216  and  _218
REMARK   91  A    between atoms: _218  and  _219
REMARK   92  A    between atoms: _218  and  _221
REMARK   93  A    between atoms: _224  and  _226
REMARK   94  A    between atoms: _226  and  _227
REMARK   95  A    between atoms: _226  and  _229
REMARK   96  A    between atoms: _229  and  _230
REMARK   97  A    between atoms: _235  and  _237
REMARK   98  A    between atoms: _237  and  _238
REMARK   99  A    between atoms: _237  and  _240
REMARK  100  A    between atoms: _240  and  _241
REMARK  101  A    between atoms: _240  and  _242
REMARK  102  A    between atoms: _244  and  _246
REMARK  103  A    between atoms: _246  and  _247
REMARK  104  A    between atoms: _246  and  _249
REMARK  105  A    between atoms: _249  and  _250
REMARK  106  A    between atoms: _253  and  _255
REMARK  107  A    between atoms: _255  and  _256
REMARK  108  A    between atoms: _258  and  _260
REMARK  109  A    between atoms: _260  and  _261
REMARK  110  A    between atoms: _260  and  _263
REMARK  111  A    between atoms: _263  and  _264
REMARK  112  A    between atoms: _264  and  _265
REMARK  113  A    between atoms: _265  and  _266
REMARK  114  A    between atoms: _275  and  _277
REMARK  115  A    between atoms: _277  and  _278
REMARK  116  A    between atoms: _277  and  _280
REMARK  117  A    between atoms: _280  and  _281
REMARK  118  A    between atoms: _286  and  _288
REMARK  119  A    between atoms: _288  and  _289
REMARK  120  A    between atoms: _288  and  _291
REMARK  121  A    between atoms: _291  and  _292
REMARK  122  A    between atoms: _292  and  _293
REMARK  123  A    between atoms: _293  and  _294
REMARK  124  A    between atoms: _303  and  _305
REMARK  125  A    between atoms: _305  and  _306
REMARK  126  A    between atoms: _305  and  _308
REMARK  127  A    between atoms: _308  and  _309
REMARK  128  A    between atoms: _312  and  _314
REMARK  129  A    between atoms: _314  and  _315
REMARK  130  A    between atoms: _314  and  _317
REMARK  131  A    between atoms: _317  and  _318
REMARK  132  A    between atoms: _321  and  _323
REMARK  133  A    between atoms: _323  and  _324
REMARK  134  A    between atoms: _323  and  _326
REMARK  135  A    between atoms: _326  and  _327
REMARK  136  A    between atoms: _332  and  _334
REMARK  137  A    between atoms: _334  and  _335
REMARK  138  A    between atoms: _334  and  _337
REMARK  139  A    between atoms: _337  and  _338
REMARK  140  A    between atoms: _341  and  _343
REMARK  141  A    between atoms: _343  and  _344
REMARK  142  A    between atoms: _346  and  _348
REMARK  143  A    between atoms: _348  and  _349
REMARK  144  A    between atoms: _352  and  _354
REMARK  145  A    between atoms: _354  and  _355
REMARK  146  A    between atoms: _354  and  _357
REMARK  147  A    between atoms: _357  and  _358
REMARK  148  A    between atoms: _361  and  _363
REMARK  149  A    between atoms: _363  and  _364
REMARK  150  A    between atoms: _363  and  _366
REMARK  151  A    between atoms: _366  and  _367
REMARK  152  A    between atoms: _370  and  _372
REMARK  153  A    between atoms: _372  and  _373
REMARK  154  A    between atoms: _372  and  _375
REMARK  155  A    between atoms: _375  and  _376
REMARK  156  A    between atoms: _379  and  _381
REMARK  157  A    between atoms: _381  and  _382
REMARK  158  A    between atoms: _381  and  _384
REMARK  159  A    between atoms: _387  and  _389
REMARK  160  A    between atoms: _389  and  _390
REMARK  161  A    between atoms: _389  and  _392
REMARK  162  A    between atoms: _392  and  _393
REMARK  163  A    between atoms: _393  and  _394
REMARK  164  A    between atoms: _394  and  _395
REMARK  165  A    between atoms: _395  and  _396
REMARK  166  A    between atoms: _400  and  _402
REMARK  167  A    between atoms: _402  and  _403
REMARK  168  A    between atoms: _402  and  _405
REMARK  169  A    between atoms: _405  and  _406
REMARK  170  A    between atoms: _406  and  _407
REMARK  171  A    between atoms: _409  and  _411
REMARK  172  A    between atoms: _411  and  _412
REMARK  173  A    between atoms: _411  and  _414
REMARK  174  A    between atoms: _414  and  _415
REMARK  175  A    between atoms: _418  and  _420
REMARK  176  A    between atoms: _420  and  _421
REMARK  177  A    between atoms: _423  and  _425
REMARK  178  A    between atoms: _425  and  _426
REMARK  179  A    between atoms: _428  and  _430
REMARK  180  A    between atoms: _430  and  _431
REMARK  181  A    between atoms: _430  and  _433
REMARK  182  A    between atoms: _433  and  _434
REMARK  183  A    between atoms: _437  and  _439
REMARK  184  A    between atoms: _439  and  _440
REMARK  185  A    between atoms: _442  and  _444
REMARK  186  A    between atoms: _444  and  _445
REMARK  187  A    between atoms: _447  and  _449
REMARK  188  A    between atoms: _449  and  _450
REMARK  189  A    between atoms: _449  and  _452
REMARK  190  A    between atoms: _452  and  _453
REMARK  191  A    between atoms: _459  and  _461
REMARK  192  A    between atoms: _461  and  _462
REMARK  193  A    between atoms: _461  and  _464
REMARK  194  A    between atoms: _464  and  _465
REMARK  195  A    between atoms: _468  and  _470
REMARK  196  A    between atoms: _470  and  _471
REMARK  197  A    between atoms: _470  and  _473
REMARK  198  A    between atoms: _473  and  _474
REMARK  199  A    between atoms: _477  and  _479
REMARK  200  A    between atoms: _479  and  _480
REMARK  201  A    between atoms: _479  and  _482
REMARK  202  A    between atoms: _482  and  _483
REMARK  203  A    between atoms: _487  and  _488
REMARK  204  A    between atoms: _493  and  _495
REMARK  205  A    between atoms: _495  and  _496
REMARK  206  A    between atoms: _495  and  _498
REMARK  207  A    between atoms: _501  and  _503
REMARK  208  A    between atoms: _503  and  _504
REMARK  209  A    between atoms: _503  and  _506
REMARK  210  A    between atoms: _506  and  _507
REMARK  211  A    between atoms: _512  and  _514
REMARK  212  A    between atoms: _514  and  _515
REMARK  213  A    between atoms: _514  and  _517
REMARK  214  A    between atoms: _517  and  _518
REMARK  215  A    between atoms: _521  and  _523
REMARK  216  A    between atoms: _523  and  _524
REMARK  217  A    between atoms: _523  and  _526
REMARK  218  A    between atoms: _526  and  _527
REMARK  219  A    between atoms: _530  and  _532
REMARK  220  A    between atoms: _532  and  _533
REMARK  221  A    between atoms: _535  and  _537
REMARK  222  A    between atoms: _537  and  _538
REMARK  223  A    between atoms: _537  and  _540
REMARK  224  A    between atoms: _540  and  _541
REMARK  225  A    between atoms: _541  and  _542
REMARK  226  A    between atoms: _542  and  _543
REMARK  227  A    between atoms: _552  and  _554
REMARK  228  A    between atoms: _554  and  _555
REMARK  229  A    between atoms: _554  and  _557
REMARK  230  A    between atoms: _557  and  _558
REMARK                            x       y       z     vdW  Elec       q    Type
REMARK                         _______ _______ _______ _____ _____    ______ ____
ROOT
ATOM      1  C   UNK A   5      15.598  56.254  11.425  0.00  0.00    +0.241 C 
ATOM      2  N   ILE A   6      16.436  55.466  12.086  0.00  0.00    -0.297 N 
ATOM      3  H   ILE A   6      17.326  55.866  12.445  0.00  0.00    +0.150 HD
ATOM      4  O   UNK A   5      14.547  55.878  10.875  0.00  0.00    -0.273 OA
ENDROOT
BRANCH   2   5
ATOM      5  CA  ILE A   6      16.149  54.057  12.326  0.00  0.00    +0.149 C 
BRANCH   5   6
ATOM      6  C   ILE A   6      15.488  53.953  13.710  0.00  0.00    +0.241 C 
ATOM      7  O   ILE A   6      16.147  54.283  14.716  0.00  0.00    -0.273 OA
ATOM      8  N   GLY A   7      14.223  53.595  13.766  0.00  0.00    -0.295 N 
ATOM      9  H   GLY A   7      13.738  53.350  12.879  0.00  0.00    +0.150 HD
BRANCH   8  10
ATOM     10  CA  GLY A   7      13.480  53.526  14.995  0.00  0.00    +0.176 C 
BRANCH  10  11
ATOM     11  C   GLY A   7      13.494  52.164  15.627  0.00  0.00    +0.243 C 
ATOM     12  N   ARG A   8      12.812  52.068  16.766  0.00  0.00    -0.297 N 
ATOM     13  H   ARG A   8      12.248  52.878  17.094  0.00  0.00    +0.150 HD
ATOM     14  O   GLY A   7      14.070  51.198  15.117  0.00  0.00    -0.273 OA
BRANCH  12  15
ATOM     15  CA  ARG A   8      12.841  50.848  17.562  0.00  0.00    +0.149 C 
BRANCH  15  16
ATOM     16  C   ARG A   8      12.338  49.647  16.773  0.00  0.00    +0.241 C 
ATOM     17  O   ARG A   8      12.813  48.537  17.023  0.00  0.00    -0.273 OA
ATOM     18  N   ASN A   9      11.398  49.849  15.890  0.00  0.00    -0.298 N 
ATOM     19  H   ASN A   9      11.043  50.811  15.716  0.00  0.00    +0.150 HD
BRANCH  18  20
ATOM     20  CA  ASN A   9      10.840  48.704  15.138  0.00  0.00    +0.146 C 
BRANCH  20  21
ATOM     21  C   ASN A   9      11.912  47.936  14.409  0.00  0.00    +0.227 C 
ATOM     22  O   ASN A   9      11.767  46.731  14.214  0.00  0.00    -0.286 OA
ENDBRANCH  20  21
BRANCH  20  23
ATOM     23  CB  ASN A   9       9.736  49.147  14.165  0.00  0.00    +0.112 C 
BRANCH  23  24
ATOM     24  CG  ASN A   9      10.185  49.788  12.860  0.00  0.00    +0.222 C 
ATOM     25  ND2 ASN A   9      10.981  50.815  12.959  0.00  0.00    -0.329 N 
ATOM     26 HD21 ASN A   9      11.253  51.174  13.897  0.00  0.00    +0.145 HD
ATOM     27 HD22 ASN A   9      11.344  51.276  12.100  0.00  0.00    +0.145 HD
ATOM     28  OD1 ASN A   9       9.815  49.301  11.741  0.00  0.00    -0.275 OA
ENDBRANCH  23  24
ENDBRANCH  20  23
ENDBRANCH  18  20
ENDBRANCH  15  16
BRANCH  15  29
ATOM     29  CB  ARG A   8      12.005  51.025  18.819  0.00  0.00    +0.033 C 
BRANCH  29  30
ATOM     30  CG  ARG A   8      12.594  52.037  19.767  0.00  0.00    +0.045 C 
BRANCH  30  31
ATOM     31  CD  ARG A   8      11.897  52.084  21.117  0.00  0.00    +0.174 C 
BRANCH  31  32
ATOM     32  NE  ARG A   8      10.489  52.484  20.959  0.00  0.00    -0.265 N 
ATOM     33  CZ  ARG A   8       9.419  51.711  20.937  0.00  0.00    +0.342 C 
ATOM     34  NH2 ARG A   8       9.481  50.388  21.113  0.00  0.00    -0.292 N 
ATOM     35 HH21 ARG A   8      10.399  49.927  21.275  0.00  0.00    +0.255 HD
ATOM     36 HH22 ARG A   8       8.611  49.819  21.088  0.00  0.00    +0.255 HD
ATOM     37  NH1 ARG A   8       8.227  52.276  20.758  0.00  0.00    -0.292 N 
ATOM     38 HH11 ARG A   8       7.370  51.687  20.737  0.00  0.00    +0.255 HD
ATOM     39 HH12 ARG A   8       8.153  53.306  20.639  0.00  0.00    +0.255 HD
ATOM     40  HE  ARG A   8      10.315  53.504  20.851  0.00  0.00    +0.259 HD
ENDBRANCH  31  32
ENDBRANCH  30  31
ENDBRANCH  29  30
ENDBRANCH  15  29
ENDBRANCH  12  15
ENDBRANCH  10  11
ENDBRANCH   8  10
ENDBRANCH   5   6
BRANCH   5  41
ATOM     41  CB  ILE A   6      17.385  53.179  12.308  0.00  0.00    +0.027 C 
ATOM     42  CG2 ILE A   6      17.008  51.721  12.549  0.00  0.00    +0.002 C 
BRANCH  41  43
ATOM     43  CG1 ILE A   6      18.133  53.315  10.994  0.00  0.00    +0.002 C 
ATOM     44  CD1 ILE A   6      17.264  53.028   9.779  0.00  0.00    +0.000 C 
ENDBRANCH  41  43
ENDBRANCH   5  41
ENDBRANCH   2   5
BRANCH   1  45
ATOM     45  C   UNK A   5      15.949  57.706  11.373  0.00  0.00    +0.151 C 
BRANCH  45  48
ATOM     46  C   ASN A   4      17.054  58.863   9.555  0.00  0.00    +0.241 C 
ATOM     47  O   ASN A   4      18.101  58.985  10.169  0.00  0.00    -0.273 OA
ATOM     48  N   UNK A   5      16.016  58.222  10.010  0.00  0.00    -0.297 N 
ATOM     49  H   UNK A   5      15.204  58.072   9.378  0.00  0.00    +0.150 HD
BRANCH  46  50
ATOM     50  CA  ASN A   4      16.884  59.456   8.170  0.00  0.00    +0.158 C 
BRANCH  50  53
ATOM     51  C   VAL A   3      16.630  61.789   8.789  0.00  0.00    +0.241 C 
ATOM     52  O   VAL A   3      15.492  61.532   9.179  0.00  0.00    -0.273 OA
ATOM     53  N   ASN A   4      17.320  60.845   8.197  0.00  0.00    -0.297 N 
ATOM     54  H   ASN A   4      18.213  61.098   7.728  0.00  0.00    +0.150 HD
BRANCH  51  55
ATOM     55  CA  VAL A   3      17.180  63.188   8.958  0.00  0.00    +0.149 C 
BRANCH  55  57
ATOM     56  C   PRO A   2      16.259  65.307   8.142  0.00  0.00    +0.245 C 
ATOM     57  N   VAL A   3      16.112  64.126   8.730  0.00  0.00    -0.297 N 
ATOM     58  H   VAL A   3      15.158  63.860   9.048  0.00  0.00    +0.150 HD
ATOM     59  O   PRO A   2      17.335  65.660   7.696  0.00  0.00    -0.273 OA
BRANCH  56  65
ATOM     60  C   THR A   1      13.285  64.725   7.367  0.00  0.00    +0.244 C 
ATOM     61  N   PRO A   2      13.765  65.546   8.284  0.00  0.00    -0.264 N 
ATOM     62  CD  PRO A   2      13.094  65.961   9.519  0.00  0.00    +0.120 C 
ATOM     63  CG  PRO A   2      14.003  66.994  10.072  0.00  0.00    -0.007 C 
ATOM     64  CB  PRO A   2      15.121  67.238   9.199  0.00  0.00    -0.000 C 
ATOM     65  CA  PRO A   2      15.039  66.219   8.057  0.00  0.00    +0.175 C 
ATOM     66  O   THR A   1      13.916  64.562   6.310  0.00  0.00    -0.273 OA
BRANCH  60  67
ATOM     67  CA  THR A   1      11.966  63.995   7.607  0.00  0.00    +0.172 C 
BRANCH  67  68
ATOM     68  N   THR A   1      11.198  63.928   6.354  0.00  0.00    -0.236 NA
ATOM     69  H   THR A   1      11.145  63.034   5.825  0.00  0.00    +0.142 HD
ENDBRANCH  67  68
BRANCH  67  70
ATOM     70  CB  THR A   1      12.197  62.602   8.151  0.00  0.00    +0.135 C 
ATOM     71  CG2 THR A   1      12.916  61.669   7.196  0.00  0.00    +0.034 C 
BRANCH  70  72
ATOM     72  OG1 THR A   1      13.032  62.773   9.294  0.00  0.00    -0.383 OA
ATOM     73  HG1 THR A   1      13.882  63.200   9.019  0.00  0.00    +0.210 HD
ENDBRANCH  70  72
ENDBRANCH  67  70
ENDBRANCH  60  67
ENDBRANCH  56  65
ENDBRANCH  55  57
BRANCH  55  74
ATOM     74  CB  VAL A   3      17.749  63.307  10.395  0.00  0.00    +0.027 C 
ATOM     75  CG2 VAL A   3      18.770  62.229  10.705  0.00  0.00    +0.002 C 
ATOM     76  CG1 VAL A   3      18.383  64.686  10.608  0.00  0.00    +0.002 C 
ENDBRANCH  55  74
ENDBRANCH  51  55
ENDBRANCH  50  53
BRANCH  50  77
ATOM     77  CB  ASN A   4      17.747  58.683   7.172  0.00  0.00    +0.114 C 
BRANCH  77  78
ATOM     78  CG  ASN A   4      17.635  59.177   5.737  0.00  0.00    +0.222 C 
ATOM     79  OD1 ASN A   4      16.517  59.485   5.326  0.00  0.00    -0.275 OA
ATOM     80  ND2 ASN A   4      18.770  59.231   5.047  0.00  0.00    -0.329 N 
ATOM     81 HD21 ASN A   4      19.664  58.945   5.494  0.00  0.00    +0.145 HD
ATOM     82 HD22 ASN A   4      18.763  59.559   4.060  0.00  0.00    +0.145 HD
ENDBRANCH  77  78
ENDBRANCH  50  77
ENDBRANCH  46  50
ENDBRANCH  45  48
BRANCH  45  83
ATOM     83  C   UNK A   5      14.733  58.438  12.027  0.00  0.00    +0.060 C 
BRANCH  83  84
ATOM     84  C   UNK A   5      14.232  57.661  13.221  0.00  0.00    +0.184 C 
ATOM     85  O   UNK A   5      12.937  56.735  13.664  0.00  0.00    -0.220 OA
ENDBRANCH  83  84
BRANCH  83  86
ATOM     86  C   UNK A   5      15.042  59.902  12.286  0.00  0.00    +0.005 C 
ATOM     87  C   UNK A   5      13.945  60.643  13.001  0.00  0.00    +0.000 C 
ENDBRANCH  83  86
ENDBRANCH  45  83
ENDBRANCH   1  45
TORSDOF 33
REMARK  Name = ../refined-set-2016/3bvb/3bvb_pocket.pdb
REMARK  230 active torsions:
REMARK  status: ('A' for Active; 'I' for Inactive)
REMARK    1  A    between atoms: _1  and  _3
REMARK    2  A    between atoms: _3  and  _4
REMARK    3  A    between atoms: _3  and  _6
REMARK    4  A    between atoms: _6  and  _7
REMARK    5  A    between atoms: _7  and  _8
REMARK    6  A    between atoms: _8  and  _9
REMARK    7  A    between atoms: _18  and  _20
REMARK    8  A    between atoms: _20  and  _21
REMARK    9  A    between atoms: _20  and  _23
REMARK   10  A    between atoms: _23  and  _24
REMARK   11  A    between atoms: _27  and  _29
REMARK   12  A    between atoms: _29  and  _30
REMARK   13  A    between atoms: _29  and  _32
REMARK   14  A    between atoms: _32  and  _33
REMARK   15  A    between atoms: _36  and  _38
REMARK   16  A    between atoms: _38  and  _39
REMARK   17  A    between atoms: _38  and  _41
REMARK   18  A    between atoms: _41  and  _42
REMARK   19  A    between atoms: _47  and  _49
REMARK   20  A    between atoms: _49  and  _50
REMARK   21  A    between atoms: _49  and  _52
REMARK   22  A    between atoms: _52  and  _53
REMARK   23  A    between atoms: _56  and  _58
REMARK   24  A    between atoms: _58  and  _59
REMARK   25  A    between atoms: _61  and  _63
REMARK   26  A    between atoms: _63  and  _64
REMARK   27  A    between atoms: _67  and  _69
REMARK   28  A    between atoms: _69  and  _70
REMARK   29  A    between atoms: _69  and  _72
REMARK   30  A    between atoms: _72  and  _73
REMARK   31  A    between atoms: _76  and  _78
REMARK   32  A    between atoms: _78  and  _79
REMARK   33  A    between atoms: _78  and  _81
REMARK   34  A    between atoms: _81  and  _82
REMARK   35  A    between atoms: _85  and  _87
REMARK   36  A    between atoms: _87  and  _88
REMARK   37  A    between atoms: _87  and  _90
REMARK   38  A    between atoms: _90  and  _91
REMARK   39  A    between atoms: _94  and  _96
REMARK   40  A    between atoms: _96  and  _97
REMARK   41  A    between atoms: _96  and  _99
REMARK   42  A    between atoms: _102  and  _104
REMARK   43  A    between atoms: _104  and  _105
REMARK   44  A    between atoms: _104  and  _107
REMARK   45  A    between atoms: _107  and  _108
REMARK   46  A    between atoms: _108  and  _109
REMARK   47  A    between atoms: _109  and  _110
REMARK   48  A    between atoms: _110  and  _111
REMARK   49  A    between atoms: _115  and  _117
REMARK   50  A    between atoms: _117  and  _118
REMARK   51  A    between atoms: _117  and  _120
REMARK   52  A    between atoms: _120  and  _121
REMARK   53  A    between atoms: _121  and  _122
REMARK   54  A    between atoms: _124  and  _126
REMARK   55  A    between atoms: _126  and  _127
REMARK   56  A    between atoms: _126  and  _129
REMARK   57  A    between atoms: _129  and  _130
REMARK   58  A    between atoms: _133  and  _135
REMARK   59  A    between atoms: _135  and  _136
REMARK   60  A    between atoms: _138  and  _140
REMARK   61  A    between atoms: _140  and  _141
REMARK   62  A    between atoms: _143  and  _145
REMARK   63  A    between atoms: _145  and  _146
REMARK   64  A    between atoms: _145  and  _148
REMARK   65  A    between atoms: _148  and  _149
REMARK   66  A    between atoms: _152  and  _154
REMARK   67  A    between atoms: _154  and  _155
REMARK   68  A    between atoms: _157  and  _159
REMARK   69  A    between atoms: _159  and  _160
REMARK   70  A    between atoms: _162  and  _164
REMARK   71  A    between atoms: _164  and  _165
REMARK   72  A    between atoms: _164  and  _167
REMARK   73  A    between atoms: _167  and  _168
REMARK   74  A    between atoms: _174  and  _176
REMARK   75  A    between atoms: _176  and  _177
REMARK   76  A    between atoms: _176  and  _179
REMARK   77  A    between atoms: _179  and  _180
REMARK   78  A    between atoms: _183  and  _185
REMARK   79  A    between atoms: _185  and  _186
REMARK   80  A    between atoms: _185  and  _188
REMARK   81  A    between atoms: _191  and  _193
REMARK   82  A    between atoms: _193  and  _194
REMARK   83  A    between atoms: _193  and  _196
REMARK   84  A    between atoms: _196  and  _197
REMARK   85  A    between atoms: _200  and  _202
REMARK   86  A    between atoms: _202  and  _203
REMARK   87  A    between atoms: _202  and  _205
REMARK   88  A    between atoms: _205  and  _206
REMARK   89  A    between atoms: _210  and  _211
REMARK   90  A    between atoms: _216  and  _218
REMARK   91  A    between atoms: _218  and  _219
REMARK   92  A    between atoms: _218  and  _221
REMARK   93  A    between atoms: _224  and  _226
REMARK   94  A    between atoms: _226  and  _227
REMARK   95  A    between atoms: _226  and  _229
REMARK   96  A    between atoms: _229  and  _230
REMARK   97  A    between atoms: _235  and  _237
REMARK   98  A    between atoms: _237  and  _238
REMARK   99  A    between atoms: _237  and  _240
REMARK  100  A    between atoms: _240  and  _241
REMARK  101  A    between atoms: _240  and  _242
REMARK  102  A    between atoms: _244  and  _246
REMARK  103  A    between atoms: _246  and  _247
REMARK  104  A    between atoms: _246  and  _249
REMARK  105  A    between atoms: _249  and  _250
REMARK  106  A    between atoms: _253  and  _255
REMARK  107  A    between atoms: _255  and  _256
REMARK  108  A    between atoms: _258  and  _260
REMARK  109  A    between atoms: _260  and  _261
REMARK  110  A    between atoms: _260  and  _263
REMARK  111  A    between atoms: _263  and  _264
REMARK  112  A    between atoms: _264  and  _265
REMARK  113  A    between atoms: _265  and  _266
REMARK  114  A    between atoms: _275  and  _277
REMARK  115  A    between atoms: _277  and  _278
REMARK  116  A    between atoms: _277  and  _280
REMARK  117  A    between atoms: _280  and  _281
REMARK  118  A    between atoms: _286  and  _288
REMARK  119  A    between atoms: _288  and  _289
REMARK  120  A    between atoms: _288  and  _291
REMARK  121  A    between atoms: _291  and  _292
REMARK  122  A    between atoms: _292  and  _293
REMARK  123  A    between atoms: _293  and  _294
REMARK  124  A    between atoms: _303  and  _305
REMARK  125  A    between atoms: _305  and  _306
REMARK  126  A    between atoms: _305  and  _308
REMARK  127  A    between atoms: _308  and  _309
REMARK  128  A    between atoms: _312  and  _314
REMARK  129  A    between atoms: _314  and  _315
REMARK  130  A    between atoms: _314  and  _317
REMARK  131  A    between atoms: _317  and  _318
REMARK  132  A    between atoms: _321  and  _323
REMARK  133  A    between atoms: _323  and  _324
REMARK  134  A    between atoms: _323  and  _326
REMARK  135  A    between atoms: _326  and  _327
REMARK  136  A    between atoms: _332  and  _334
REMARK  137  A    between atoms: _334  and  _335
REMARK  138  A    between atoms: _334  and  _337
REMARK  139  A    between atoms: _337  and  _338
REMARK  140  A    between atoms: _341  and  _343
REMARK  141  A    between atoms: _343  and  _344
REMARK  142  A    between atoms: _346  and  _348
REMARK  143  A    between atoms: _348  and  _349
REMARK  144  A    between atoms: _352  and  _354
REMARK  145  A    between atoms: _354  and  _355
REMARK  146  A    between atoms: _354  and  _357
REMARK  147  A    between atoms: _357  and  _358
REMARK  148  A    between atoms: _361  and  _363
REMARK  149  A    between atoms: _363  and  _364
REMARK  150  A    between atoms: _363  and  _366
REMARK  151  A    between atoms: _366  and  _367
REMARK  152  A    between atoms: _370  and  _372
REMARK  153  A    between atoms: _372  and  _373
REMARK  154  A    between atoms: _372  and  _375
REMARK  155  A    between atoms: _375  and  _376
REMARK  156  A    between atoms: _379  and  _381
REMARK  157  A    between atoms: _381  and  _382
REMARK  158  A    between atoms: _381  and  _384
REMARK  159  A    between atoms: _387  and  _389
REMARK  160  A    between atoms: _389  and  _390
REMARK  161  A    between atoms: _389  and  _392
REMARK  162  A    between atoms: _392  and  _393
REMARK  163  A    between atoms: _393  and  _394
REMARK  164  A    between atoms: _394  and  _395
REMARK  165  A    between atoms: _395  and  _396
REMARK  166  A    between atoms: _400  and  _402
REMARK  167  A    between atoms: _402  and  _403
REMARK  168  A    between atoms: _402  and  _405
REMARK  169  A    between atoms: _405  and  _406
REMARK  170  A    between atoms: _406  and  _407
REMARK  171  A    between atoms: _409  and  _411
REMARK  172  A    between atoms: _411  and  _412
REMARK  173  A    between atoms: _411  and  _414
REMARK  174  A    between atoms: _414  and  _415
REMARK  175  A    between atoms: _418  and  _420
REMARK  176  A    between atoms: _420  and  _421
REMARK  177  A    between atoms: _423  and  _425
REMARK  178  A    between atoms: _425  and  _426
REMARK  179  A    between atoms: _428  and  _430
REMARK  180  A    between atoms: _430  and  _431
REMARK  181  A    between atoms: _430  and  _433
REMARK  182  A    between atoms: _433  and  _434
REMARK  183  A    between atoms: _437  and  _439
REMARK  184  A    between atoms: _439  and  _440
REMARK  185  A    between atoms: _442  and  _444
REMARK  186  A    between atoms: _444  and  _445
REMARK  187  A    between atoms: _447  and  _449
REMARK  188  A    between atoms: _449  and  _450
REMARK  189  A    between atoms: _449  and  _452
REMARK  190  A    between atoms: _452  and  _453
REMARK  191  A    between atoms: _459  and  _461
REMARK  192  A    between atoms: _461  and  _462
REMARK  193  A    between atoms: _461  and  _464
REMARK  194  A    between atoms: _464  and  _465
REMARK  195  A    between atoms: _468  and  _470
REMARK  196  A    between atoms: _470  and  _471
REMARK  197  A    between atoms: _470  and  _473
REMARK  198  A    between atoms: _473  and  _474
REMARK  199  A    between atoms: _477  and  _479
REMARK  200  A    between atoms: _479  and  _480
REMARK  201  A    between atoms: _479  and  _482
REMARK  202  A    between atoms: _482  and  _483
REMARK  203  A    between atoms: _487  and  _488
REMARK  204  A    between atoms: _493  and  _495
REMARK  205  A    between atoms: _495  and  _496
REMARK  206  A    between atoms: _495  and  _498
REMARK  207  A    between atoms: _501  and  _503
REMARK  208  A    between atoms: _503  and  _504
REMARK  209  A    between atoms: _503  and  _506
REMARK  210  A    between atoms: _506  and  _507
REMARK  211  A    between atoms: _512  and  _514
REMARK  212  A    between atoms: _514  and  _515
REMARK  213  A    between atoms: _514  and  _517
REMARK  214  A    between atoms: _517  and  _518
REMARK  215  A    between atoms: _521  and  _523
REMARK  216  A    between atoms: _523  and  _524
REMARK  217  A    between atoms: _523  and  _526
REMARK  218  A    between atoms: _526  and  _527
REMARK  219  A    between atoms: _530  and  _532
REMARK  220  A    between atoms: _532  and  _533
REMARK  221  A    between atoms: _535  and  _537
REMARK  222  A    between atoms: _537  and  _538
REMARK  223  A    between atoms: _537  and  _540
REMARK  224  A    between atoms: _540  and  _541
REMARK  225  A    between atoms: _541  and  _542
REMARK  226  A    between atoms: _542  and  _543
REMARK  227  A    between atoms: _552  and  _554
REMARK  228  A    between atoms: _554  and  _555
REMARK  229  A    between atoms: _554  and  _557
REMARK  230  A    between atoms: _557  and  _558
REMARK                            x       y       z     vdW  Elec       q    Type
REMARK                         _______ _______ _______ _____ _____    ______ ____
ROOT
ATOM      1  NE  ARG A   1       6.100  55.643  22.654  0.00  0.00    -0.265 N 
ATOM      2  CZ  ARG A   1       4.812  55.990  22.616  0.00  0.00    +0.342 C 
ATOM      3  NH2 ARG A   1       4.020  56.107  23.681  0.00  0.00    -0.292 N 
ATOM      4 HH21 ARG A   1       4.397  55.922  24.632  0.00  0.00    +0.255 HD
ATOM      5 HH22 ARG A   1       3.025  56.383  23.561  0.00  0.00    +0.255 HD
ATOM      6  NH1 ARG A   1       4.278  56.232  21.421  0.00  0.00    -0.292 N 
ATOM      7 HH11 ARG A   1       3.278  56.505  21.344  0.00  0.00    +0.255 HD
ATOM      8 HH12 ARG A   1       4.861  56.148  20.564  0.00  0.00    +0.255 HD
ATOM      9  HE  ARG A   1       6.607  55.589  21.747  0.00  0.00    +0.259 HD
ENDROOT
BRANCH   1  10
ATOM     10  CD  ARG A   1       6.858  55.332  23.865  0.00  0.00    +0.174 C 
BRANCH  10  11
ATOM     11  CG  ARG A   1       7.792  54.144  23.623  0.00  0.00    +0.045 C 
BRANCH  11  12
ATOM     12  CB  ARG A   1       8.638  53.897  24.863  0.00  0.00    +0.029 C 
BRANCH  12  13
ATOM     13  CA  ARG A   1       9.637  52.772  24.721  0.00  0.00    +0.133 C 
BRANCH  13  14
ATOM     14  N   ARG A   1       8.971  51.487  24.591  0.00  0.00    -0.239 NA
ATOM     15  H   ARG A   1       7.933  51.431  24.625  0.00  0.00    +0.142 HD
ENDBRANCH  13  14
BRANCH  13  16
ATOM     16  C   ARG A   1      10.593  52.746  25.909  0.00  0.00    +0.224 C 
ATOM     17  O   ARG A   1      10.159  52.266  26.972  0.00  0.00    -0.287 OA
ENDBRANCH  13  16
ENDBRANCH  12  13
ENDBRANCH  11  12
ENDBRANCH  10  11
ENDBRANCH   1  10
TORSDOF 6
REMARK  Name = ../refined-set-2016/3bvb/3bvb_pocket.pdb
REMARK  230 active torsions:
REMARK  status: ('A' for Active; 'I' for Inactive)
REMARK    1  A    between atoms: _1  and  _3
REMARK    2  A    between atoms: _3  and  _4
REMARK    3  A    between atoms: _3  and  _6
REMARK    4  A    between atoms: _6  and  _7
REMARK    5  A    between atoms: _7  and  _8
REMARK    6  A    between atoms: _8  and  _9
REMARK    7  A    between atoms: _18  and  _20
REMARK    8  A    between atoms: _20  and  _21
REMARK    9  A    between atoms: _20  and  _23
REMARK   10  A    between atoms: _23  and  _24
REMARK   11  A    between atoms: _27  and  _29
REMARK   12  A    between atoms: _29  and  _30
REMARK   13  A    between atoms: _29  and  _32
REMARK   14  A    between atoms: _32  and  _33
REMARK   15  A    between atoms: _36  and  _38
REMARK   16  A    between atoms: _38  and  _39
REMARK   17  A    between atoms: _38  and  _41
REMARK   18  A    between atoms: _41  and  _42
REMARK   19  A    between atoms: _47  and  _49
REMARK   20  A    between atoms: _49  and  _50
REMARK   21  A    between atoms: _49  and  _52
REMARK   22  A    between atoms: _52  and  _53
REMARK   23  A    between atoms: _56  and  _58
REMARK   24  A    between atoms: _58  and  _59
REMARK   25  A    between atoms: _61  and  _63
REMARK   26  A    between atoms: _63  and  _64
REMARK   27  A    between atoms: _67  and  _69
REMARK   28  A    between atoms: _69  and  _70
REMARK   29  A    between atoms: _69  and  _72
REMARK   30  A    between atoms: _72  and  _73
REMARK   31  A    between atoms: _76  and  _78
REMARK   32  A    between atoms: _78  and  _79
REMARK   33  A    between atoms: _78  and  _81
REMARK   34  A    between atoms: _81  and  _82
REMARK   35  A    between atoms: _85  and  _87
REMARK   36  A    between atoms: _87  and  _88
REMARK   37  A    between atoms: _87  and  _90
REMARK   38  A    between atoms: _90  and  _91
REMARK   39  A    between atoms: _94  and  _96
REMARK   40  A    between atoms: _96  and  _97
REMARK   41  A    between atoms: _96  and  _99
REMARK   42  A    between atoms: _102  and  _104
REMARK   43  A    between atoms: _104  and  _105
REMARK   44  A    between atoms: _104  and  _107
REMARK   45  A    between atoms: _107  and  _108
REMARK   46  A    between atoms: _108  and  _109
REMARK   47  A    between atoms: _109  and  _110
REMARK   48  A    between atoms: _110  and  _111
REMARK   49  A    between atoms: _115  and  _117
REMARK   50  A    between atoms: _117  and  _118
REMARK   51  A    between atoms: _117  and  _120
REMARK   52  A    between atoms: _120  and  _121
REMARK   53  A    between atoms: _121  and  _122
REMARK   54  A    between atoms: _124  and  _126
REMARK   55  A    between atoms: _126  and  _127
REMARK   56  A    between atoms: _126  and  _129
REMARK   57  A    between atoms: _129  and  _130
REMARK   58  A    between atoms: _133  and  _135
REMARK   59  A    between atoms: _135  and  _136
REMARK   60  A    between atoms: _138  and  _140
REMARK   61  A    between atoms: _140  and  _141
REMARK   62  A    between atoms: _143  and  _145
REMARK   63  A    between atoms: _145  and  _146
REMARK   64  A    between atoms: _145  and  _148
REMARK   65  A    between atoms: _148  and  _149
REMARK   66  A    between atoms: _152  and  _154
REMARK   67  A    between atoms: _154  and  _155
REMARK   68  A    between atoms: _157  and  _159
REMARK   69  A    between atoms: _159  and  _160
REMARK   70  A    between atoms: _162  and  _164
REMARK   71  A    between atoms: _164  and  _165
REMARK   72  A    between atoms: _164  and  _167
REMARK   73  A    between atoms: _167  and  _168
REMARK   74  A    between atoms: _174  and  _176
REMARK   75  A    between atoms: _176  and  _177
REMARK   76  A    between atoms: _176  and  _179
REMARK   77  A    between atoms: _179  and  _180
REMARK   78  A    between atoms: _183  and  _185
REMARK   79  A    between atoms: _185  and  _186
REMARK   80  A    between atoms: _185  and  _188
REMARK   81  A    between atoms: _191  and  _193
REMARK   82  A    between atoms: _193  and  _194
REMARK   83  A    between atoms: _193  and  _196
REMARK   84  A    between atoms: _196  and  _197
REMARK   85  A    between atoms: _200  and  _202
REMARK   86  A    between atoms: _202  and  _203
REMARK   87  A    between atoms: _202  and  _205
REMARK   88  A    between atoms: _205  and  _206
REMARK   89  A    between atoms: _210  and  _211
REMARK   90  A    between atoms: _216  and  _218
REMARK   91  A    between atoms: _218  and  _219
REMARK   92  A    between atoms: _218  and  _221
REMARK   93  A    between atoms: _224  and  _226
REMARK   94  A    between atoms: _226  and  _227
REMARK   95  A    between atoms: _226  and  _229
REMARK   96  A    between atoms: _229  and  _230
REMARK   97  A    between atoms: _235  and  _237
REMARK   98  A    between atoms: _237  and  _238
REMARK   99  A    between atoms: _237  and  _240
REMARK  100  A    between atoms: _240  and  _241
REMARK  101  A    between atoms: _240  and  _242
REMARK  102  A    between atoms: _244  and  _246
REMARK  103  A    between atoms: _246  and  _247
REMARK  104  A    between atoms: _246  and  _249
REMARK  105  A    between atoms: _249  and  _250
REMARK  106  A    between atoms: _253  and  _255
REMARK  107  A    between atoms: _255  and  _256
REMARK  108  A    between atoms: _258  and  _260
REMARK  109  A    between atoms: _260  and  _261
REMARK  110  A    between atoms: _260  and  _263
REMARK  111  A    between atoms: _263  and  _264
REMARK  112  A    between atoms: _264  and  _265
REMARK  113  A    between atoms: _265  and  _266
REMARK  114  A    between atoms: _275  and  _277
REMARK  115  A    between atoms: _277  and  _278
REMARK  116  A    between atoms: _277  and  _280
REMARK  117  A    between atoms: _280  and  _281
REMARK  118  A    between atoms: _286  and  _288
REMARK  119  A    between atoms: _288  and  _289
REMARK  120  A    between atoms: _288  and  _291
REMARK  121  A    between atoms: _291  and  _292
REMARK  122  A    between atoms: _292  and  _293
REMARK  123  A    between atoms: _293  and  _294
REMARK  124  A    between atoms: _303  and  _305
REMARK  125  A    between atoms: _305  and  _306
REMARK  126  A    between atoms: _305  and  _308
REMARK  127  A    between atoms: _308  and  _309
REMARK  128  A    between atoms: _312  and  _314
REMARK  129  A    between atoms: _314  and  _315
REMARK  130  A    between atoms: _314  and  _317
REMARK  131  A    between atoms: _317  and  _318
REMARK  132  A    between atoms: _321  and  _323
REMARK  133  A    between atoms: _323  and  _324
REMARK  134  A    between atoms: _323  and  _326
REMARK  135  A    between atoms: _326  and  _327
REMARK  136  A    between atoms: _332  and  _334
REMARK  137  A    between atoms: _334  and  _335
REMARK  138  A    between atoms: _334  and  _337
REMARK  139  A    between atoms: _337  and  _338
REMARK  140  A    between atoms: _341  and  _343
REMARK  141  A    between atoms: _343  and  _344
REMARK  142  A    between atoms: _346  and  _348
REMARK  143  A    between atoms: _348  and  _349
REMARK  144  A    between atoms: _352  and  _354
REMARK  145  A    between atoms: _354  and  _355
REMARK  146  A    between atoms: _354  and  _357
REMARK  147  A    between atoms: _357  and  _358
REMARK  148  A    between atoms: _361  and  _363
REMARK  149  A    between atoms: _363  and  _364
REMARK  150  A    between atoms: _363  and  _366
REMARK  151  A    between atoms: _366  and  _367
REMARK  152  A    between atoms: _370  and  _372
REMARK  153  A    between atoms: _372  and  _373
REMARK  154  A    between atoms: _372  and  _375
REMARK  155  A    between atoms: _375  and  _376
REMARK  156  A    between atoms: _379  and  _381
REMARK  157  A    between atoms: _381  and  _382
REMARK  158  A    between atoms: _381  and  _384
REMARK  159  A    between atoms: _387  and  _389
REMARK  160  A    between atoms: _389  and  _390
REMARK  161  A    between atoms: _389  and  _392
REMARK  162  A    between atoms: _392  and  _393
REMARK  163  A    between atoms: _393  and  _394
REMARK  164  A    between atoms: _394  and  _395
REMARK  165  A    between atoms: _395  and  _396
REMARK  166  A    between atoms: _400  and  _402
REMARK  167  A    between atoms: _402  and  _403
REMARK  168  A    between atoms: _402  and  _405
REMARK  169  A    between atoms: _405  and  _406
REMARK  170  A    between atoms: _406  and  _407
REMARK  171  A    between atoms: _409  and  _411
REMARK  172  A    between atoms: _411  and  _412
REMARK  173  A    between atoms: _411  and  _414
REMARK  174  A    between atoms: _414  and  _415
REMARK  175  A    between atoms: _418  and  _420
REMARK  176  A    between atoms: _420  and  _421
REMARK  177  A    between atoms: _423  and  _425
REMARK  178  A    between atoms: _425  and  _426
REMARK  179  A    between atoms: _428  and  _430
REMARK  180  A    between atoms: _430  and  _431
REMARK  181  A    between atoms: _430  and  _433
REMARK  182  A    between atoms: _433  and  _434
REMARK  183  A    between atoms: _437  and  _439
REMARK  184  A    between atoms: _439  and  _440
REMARK  185  A    between atoms: _442  and  _444
REMARK  186  A    between atoms: _444  and  _445
REMARK  187  A    between atoms: _447  and  _449
REMARK  188  A    between atoms: _449  and  _450
REMARK  189  A    between atoms: _449  and  _452
REMARK  190  A    between atoms: _452  and  _453
REMARK  191  A    between atoms: _459  and  _461
REMARK  192  A    between atoms: _461  and  _462
REMARK  193  A    between atoms: _461  and  _464
REMARK  194  A    between atoms: _464  and  _465
REMARK  195  A    between atoms: _468  and  _470
REMARK  196  A    between atoms: _470  and  _471
REMARK  197  A    between atoms: _470  and  _473
REMARK  198  A    between atoms: _473  and  _474
REMARK  199  A    between atoms: _477  and  _479
REMARK  200  A    between atoms: _479  and  _480
REMARK  201  A    between atoms: _479  and  _482
REMARK  202  A    between atoms: _482  and  _483
REMARK  203  A    between atoms: _487  and  _488
REMARK  204  A    between atoms: _493  and  _495
REMARK  205  A    between atoms: _495  and  _496
REMARK  206  A    between atoms: _495  and  _498
REMARK  207  A    between atoms: _501  and  _503
REMARK  208  A    between atoms: _503  and  _504
REMARK  209  A    between atoms: _503  and  _506
REMARK  210  A    between atoms: _506  and  _507
REMARK  211  A    between atoms: _512  and  _514
REMARK  212  A    between atoms: _514  and  _515
REMARK  213  A    between atoms: _514  and  _517
REMARK  214  A    between atoms: _517  and  _518
REMARK  215  A    between atoms: _521  and  _523
REMARK  216  A    between atoms: _523  and  _524
REMARK  217  A    between atoms: _523  and  _526
REMARK  218  A    between atoms: _526  and  _527
REMARK  219  A    between atoms: _530  and  _532
REMARK  220  A    between atoms: _532  and  _533
REMARK  221  A    between atoms: _535  and  _537
REMARK  222  A    between atoms: _537  and  _538
REMARK  223  A    between atoms: _537  and  _540
REMARK  224  A    between atoms: _540  and  _541
REMARK  225  A    between atoms: _541  and  _542
REMARK  226  A    between atoms: _542  and  _543
REMARK  227  A    between atoms: _552  and  _554
REMARK  228  A    between atoms: _554  and  _555
REMARK  229  A    between atoms: _554  and  _557
REMARK  230  A    between atoms: _557  and  _558
REMARK                            x       y       z     vdW  Elec       q    Type
REMARK                         _______ _______ _______ _____ _____    ______ ____
ROOT
ATOM      1  C   GLY A   5      18.054  62.038  18.757  0.00  0.00    +0.243 C 
ATOM      2  N   ALA A   6      18.224  62.417  19.999  0.00  0.00    -0.297 N 
ATOM      3  H   ALA A   6      18.410  61.672  20.700  0.00  0.00    +0.150 HD
ATOM      4  O   GLY A   5      17.804  62.858  17.893  0.00  0.00    -0.273 OA
ENDROOT
BRANCH   2   5
ATOM      5  CA  ALA A   6      18.176  63.784  20.485  0.00  0.00    +0.149 C 
ATOM      6  CB  ALA A   6      17.188  63.881  21.648  0.00  0.00    +0.031 C 
BRANCH   5   7
ATOM      7  C   ALA A   6      19.569  64.235  20.915  0.00  0.00    +0.241 C 
ATOM      8  O   ALA A   6      20.202  63.583  21.738  0.00  0.00    -0.273 OA
ATOM      9  N   ASP A   7      20.023  65.353  20.359  0.00  0.00    -0.297 N 
ATOM     10  H   ASP A   7      19.484  65.820  19.602  0.00  0.00    +0.150 HD
BRANCH   9  11
ATOM     11  CA  ASP A   7      21.273  65.912  20.817  0.00  0.00    +0.160 C 
BRANCH  11  12
ATOM     12  C   ASP A   7      21.130  66.424  22.253  0.00  0.00    +0.241 C 
ATOM     13  O   ASP A   7      22.062  66.355  23.068  0.00  0.00    -0.273 OA
ATOM     14  N   ASP A   8      19.958  66.978  22.553  0.00  0.00    -0.297 N 
ATOM     15  H   ASP A   8      19.185  66.851  21.869  0.00  0.00    +0.150 HD
BRANCH  14  16
ATOM     16  CA  ASP A   8      19.662  67.749  23.759  0.00  0.00    +0.160 C 
BRANCH  16  17
ATOM     17  C   ASP A   8      18.508  67.119  24.523  0.00  0.00    +0.241 C 
ATOM     18  N   THR A   9      18.497  67.398  25.800  0.00  0.00    -0.295 N 
ATOM     19  H   THR A   9      19.298  67.936  26.186  0.00  0.00    +0.150 HD
ATOM     20  O   ASP A   8      17.675  66.373  23.981  0.00  0.00    -0.273 OA
BRANCH  18  21
ATOM     21  CA  THR A   9      17.432  67.003  26.721  0.00  0.00    +0.176 C 
BRANCH  21  22
ATOM     22  C   THR A   9      16.379  68.082  26.723  0.00  0.00    +0.243 C 
ATOM     23  O   THR A   9      16.723  69.263  26.891  0.00  0.00    -0.273 OA
ATOM     24  N   VAL A  10      15.109  67.689  26.556  0.00  0.00    -0.298 N 
ATOM     25  H   VAL A  10      14.916  66.669  26.496  0.00  0.00    +0.150 HD
BRANCH  24  26
ATOM     26  CA  VAL A  10      14.001  68.593  26.455  0.00  0.00    +0.137 C 
BRANCH  26  27
ATOM     27  CB  VAL A  10      13.452  68.723  25.010  0.00  0.00    +0.026 C 
ATOM     28  CG2 VAL A  10      12.494  69.930  24.976  0.00  0.00    +0.002 C 
ATOM     29  CG1 VAL A  10      14.514  68.852  23.951  0.00  0.00    +0.002 C 
ENDBRANCH  26  27
BRANCH  26  30
ATOM     30  C   VAL A  10      12.878  68.098  27.375  0.00  0.00    +0.227 C 
ATOM     31  O   VAL A  10      12.457  66.946  27.244  0.00  0.00    -0.286 OA
ENDBRANCH  26  30
ENDBRANCH  24  26
ENDBRANCH  21  22
BRANCH  21  32
ATOM     32  CB  THR A   9      18.079  66.848  28.108  0.00  0.00    +0.137 C 
ATOM     33  CG2 THR A   9      17.051  66.601  29.222  0.00  0.00    +0.034 C 
BRANCH  32  34
ATOM     34  OG1 THR A   9      18.992  65.714  28.001  0.00  0.00    -0.382 OA
ATOM     35  HG1 THR A   9      19.439  65.568  28.872  0.00  0.00    +0.210 HD
ENDBRANCH  32  34
ENDBRANCH  21  32
ENDBRANCH  18  21
ENDBRANCH  16  17
BRANCH  16  36
ATOM     36  CB  ASP A   8      19.284  69.142  23.335  0.00  0.00    +0.143 C 
BRANCH  36  37
ATOM     37  CG  ASP A   8      20.119  69.857  22.307  0.00  0.00    +0.367 C 
ATOM     38  OD2 ASP A   8      21.377  69.820  22.491  0.00  0.00    -0.246 OA
ATOM     39  OD1 ASP A   8      19.591  70.491  21.329  0.00  0.00    -0.246 OA
ENDBRANCH  36  37
ENDBRANCH  16  36
ENDBRANCH  14  16
ENDBRANCH  11  12
BRANCH  11  40
ATOM     40  CB  ASP A   7      21.652  67.065  19.892  0.00  0.00    +0.143 C 
BRANCH  40  41
ATOM     41  CG  ASP A   7      21.901  66.716  18.440  0.00  0.00    +0.367 C 
ATOM     42  OD2 ASP A   7      22.074  65.559  18.041  0.00  0.00    -0.246 OA
ATOM     43  OD1 ASP A   7      21.923  67.656  17.589  0.00  0.00    -0.246 OA
ENDBRANCH  40  41
ENDBRANCH  11  40
ENDBRANCH   9  11
ENDBRANCH   5   7
ENDBRANCH   2   5
BRANCH   1  44
ATOM     44  CA  GLY A   5      18.189  60.571  18.388  0.00  0.00    +0.176 C 
BRANCH  44  46
ATOM     45  C   THR A   4      19.683  59.454  20.000  0.00  0.00    +0.243 C 
ATOM     46  N   GLY A   5      18.518  59.702  19.483  0.00  0.00    -0.295 N 
ATOM     47  H   GLY A   5      17.716  59.205  19.920  0.00  0.00    +0.150 HD
ATOM     48  O   THR A   4      20.694  59.875  19.479  0.00  0.00    -0.273 OA
BRANCH  45  49
ATOM     49  CA  THR A   4      19.734  58.577  21.247  0.00  0.00    +0.176 C 
BRANCH  49  52
ATOM     50  C   ASN A   3      17.958  59.472  22.582  0.00  0.00    +0.241 C 
ATOM     51  O   ASN A   3      18.479  60.585  22.575  0.00  0.00    -0.273 OA
ATOM     52  N   THR A   4      18.479  58.433  21.918  0.00  0.00    -0.295 N 
ATOM     53  H   THR A   4      17.973  57.525  21.890  0.00  0.00    +0.150 HD
BRANCH  50  54
ATOM     54  CA  ASN A   3      16.625  59.237  23.253  0.00  0.00    +0.158 C 
BRANCH  54  56
ATOM     55  C   LEU A   2      16.191  57.838  25.160  0.00  0.00    +0.241 C 
ATOM     56  N   ASN A   3      16.735  58.925  24.656  0.00  0.00    -0.297 N 
ATOM     57  H   ASN A   3      17.255  59.572  25.283  0.00  0.00    +0.150 HD
ATOM     58  O   LEU A   2      15.778  56.888  24.500  0.00  0.00    -0.273 OA
BRANCH  55  59
ATOM     59  CA  LEU A   2      16.040  57.829  26.652  0.00  0.00    +0.149 C 
BRANCH  59  61
ATOM     60  C   LEU A   1      13.888  58.874  26.974  0.00  0.00    +0.238 C 
ATOM     61  N   LEU A   2      14.646  57.796  27.039  0.00  0.00    -0.297 N 
ATOM     62  H   LEU A   2      14.233  56.903  27.376  0.00  0.00    +0.150 HD
ATOM     63  O   LEU A   1      14.359  59.995  26.724  0.00  0.00    -0.274 OA
BRANCH  60  64
ATOM     64  CA  LEU A   1      12.382  58.750  27.199  0.00  0.00    +0.145 C 
BRANCH  64  65
ATOM     65  N   LEU A   1      11.960  59.712  28.201  0.00  0.00    -0.238 NA
ATOM     66  H   LEU A   1      11.803  60.693  27.894  0.00  0.00    +0.142 HD
ENDBRANCH  64  65
BRANCH  64  67
ATOM     67  CB  LEU A   1      11.624  59.069  25.934  0.00  0.00    +0.026 C 
BRANCH  67  68
ATOM     68  CG  LEU A   1      11.638  58.236  24.729  0.00  0.00    +0.002 C 
ATOM     69  CD2 LEU A   1      10.976  56.914  25.060  0.00  0.00    +0.000 C 
ATOM     70  CD1 LEU A   1      10.846  58.896  23.589  0.00  0.00    +0.000 C 
ENDBRANCH  67  68
ENDBRANCH  64  67
ENDBRANCH  60  64
ENDBRANCH  59  61
BRANCH  59  71
ATOM     71  CB  LEU A   2      16.769  56.605  27.209  0.00  0.00    +0.029 C 
BRANCH  71  72
ATOM     72  CG  LEU A   2      16.659  56.436  28.735  0.00  0.00    +0.002 C 
ATOM     73  CD2 LEU A   2      17.156  57.661  29.464  0.00  0.00    +0.000 C 
ATOM     74  CD1 LEU A   2      17.445  55.178  29.143  0.00  0.00    +0.000 C 
ENDBRANCH  71  72
ENDBRANCH  59  71
ENDBRANCH  55  59
ENDBRANCH  54  56
BRANCH  54  75
ATOM     75  CB  ASN A   3      15.766  60.490  23.124  0.00  0.00    +0.114 C 
BRANCH  75  76
ATOM     76  CG  ASN A   3      15.085  60.714  21.856  0.00  0.00    +0.222 C 
ATOM     77  OD1 ASN A   3      14.123  61.438  21.594  0.00  0.00    -0.275 OA
ATOM     78  ND2 ASN A   3      15.626  60.090  20.844  0.00  0.00    -0.329 N 
ATOM     79 HD21 ASN A   3      16.442  59.463  20.996  0.00  0.00    +0.145 HD
ATOM     80 HD22 ASN A   3      15.241  60.220  19.887  0.00  0.00    +0.145 HD
ENDBRANCH  75  76
ENDBRANCH  54  75
ENDBRANCH  50  54
ENDBRANCH  49  52
BRANCH  49  81
ATOM     81  CB  THR A   4      20.279  57.212  20.814  0.00  0.00    +0.137 C 
ATOM     82  CG2 THR A   4      20.488  56.331  22.053  0.00  0.00    +0.034 C 
BRANCH  81  83
ATOM     83  OG1 THR A   4      19.357  56.550  19.957  0.00  0.00    -0.382 OA
ATOM     84  HG1 THR A   4      19.202  57.103  19.151  0.00  0.00    +0.210 HD
ENDBRANCH  81  83
ENDBRANCH  49  81
ENDBRANCH  45  49
ENDBRANCH  44  46
ENDBRANCH   1  44
TORSDOF 35
REMARK  Name = ../refined-set-2016/3bvb/3bvb_pocket.pdb
REMARK  230 active torsions:
REMARK  status: ('A' for Active; 'I' for Inactive)
REMARK    1  A    between atoms: _1  and  _3
REMARK    2  A    between atoms: _3  and  _4
REMARK    3  A    between atoms: _3  and  _6
REMARK    4  A    between atoms: _6  and  _7
REMARK    5  A    between atoms: _7  and  _8
REMARK    6  A    between atoms: _8  and  _9
REMARK    7  A    between atoms: _18  and  _20
REMARK    8  A    between atoms: _20  and  _21
REMARK    9  A    between atoms: _20  and  _23
REMARK   10  A    between atoms: _23  and  _24
REMARK   11  A    between atoms: _27  and  _29
REMARK   12  A    between atoms: _29  and  _30
REMARK   13  A    between atoms: _29  and  _32
REMARK   14  A    between atoms: _32  and  _33
REMARK   15  A    between atoms: _36  and  _38
REMARK   16  A    between atoms: _38  and  _39
REMARK   17  A    between atoms: _38  and  _41
REMARK   18  A    between atoms: _41  and  _42
REMARK   19  A    between atoms: _47  and  _49
REMARK   20  A    between atoms: _49  and  _50
REMARK   21  A    between atoms: _49  and  _52
REMARK   22  A    between atoms: _52  and  _53
REMARK   23  A    between atoms: _56  and  _58
REMARK   24  A    between atoms: _58  and  _59
REMARK   25  A    between atoms: _61  and  _63
REMARK   26  A    between atoms: _63  and  _64
REMARK   27  A    between atoms: _67  and  _69
REMARK   28  A    between atoms: _69  and  _70
REMARK   29  A    between atoms: _69  and  _72
REMARK   30  A    between atoms: _72  and  _73
REMARK   31  A    between atoms: _76  and  _78
REMARK   32  A    between atoms: _78  and  _79
REMARK   33  A    between atoms: _78  and  _81
REMARK   34  A    between atoms: _81  and  _82
REMARK   35  A    between atoms: _85  and  _87
REMARK   36  A    between atoms: _87  and  _88
REMARK   37  A    between atoms: _87  and  _90
REMARK   38  A    between atoms: _90  and  _91
REMARK   39  A    between atoms: _94  and  _96
REMARK   40  A    between atoms: _96  and  _97
REMARK   41  A    between atoms: _96  and  _99
REMARK   42  A    between atoms: _102  and  _104
REMARK   43  A    between atoms: _104  and  _105
REMARK   44  A    between atoms: _104  and  _107
REMARK   45  A    between atoms: _107  and  _108
REMARK   46  A    between atoms: _108  and  _109
REMARK   47  A    between atoms: _109  and  _110
REMARK   48  A    between atoms: _110  and  _111
REMARK   49  A    between atoms: _115  and  _117
REMARK   50  A    between atoms: _117  and  _118
REMARK   51  A    between atoms: _117  and  _120
REMARK   52  A    between atoms: _120  and  _121
REMARK   53  A    between atoms: _121  and  _122
REMARK   54  A    between atoms: _124  and  _126
REMARK   55  A    between atoms: _126  and  _127
REMARK   56  A    between atoms: _126  and  _129
REMARK   57  A    between atoms: _129  and  _130
REMARK   58  A    between atoms: _133  and  _135
REMARK   59  A    between atoms: _135  and  _136
REMARK   60  A    between atoms: _138  and  _140
REMARK   61  A    between atoms: _140  and  _141
REMARK   62  A    between atoms: _143  and  _145
REMARK   63  A    between atoms: _145  and  _146
REMARK   64  A    between atoms: _145  and  _148
REMARK   65  A    between atoms: _148  and  _149
REMARK   66  A    between atoms: _152  and  _154
REMARK   67  A    between atoms: _154  and  _155
REMARK   68  A    between atoms: _157  and  _159
REMARK   69  A    between atoms: _159  and  _160
REMARK   70  A    between atoms: _162  and  _164
REMARK   71  A    between atoms: _164  and  _165
REMARK   72  A    between atoms: _164  and  _167
REMARK   73  A    between atoms: _167  and  _168
REMARK   74  A    between atoms: _174  and  _176
REMARK   75  A    between atoms: _176  and  _177
REMARK   76  A    between atoms: _176  and  _179
REMARK   77  A    between atoms: _179  and  _180
REMARK   78  A    between atoms: _183  and  _185
REMARK   79  A    between atoms: _185  and  _186
REMARK   80  A    between atoms: _185  and  _188
REMARK   81  A    between atoms: _191  and  _193
REMARK   82  A    between atoms: _193  and  _194
REMARK   83  A    between atoms: _193  and  _196
REMARK   84  A    between atoms: _196  and  _197
REMARK   85  A    between atoms: _200  and  _202
REMARK   86  A    between atoms: _202  and  _203
REMARK   87  A    between atoms: _202  and  _205
REMARK   88  A    between atoms: _205  and  _206
REMARK   89  A    between atoms: _210  and  _211
REMARK   90  A    between atoms: _216  and  _218
REMARK   91  A    between atoms: _218  and  _219
REMARK   92  A    between atoms: _218  and  _221
REMARK   93  A    between atoms: _224  and  _226
REMARK   94  A    between atoms: _226  and  _227
REMARK   95  A    between atoms: _226  and  _229
REMARK   96  A    between atoms: _229  and  _230
REMARK   97  A    between atoms: _235  and  _237
REMARK   98  A    between atoms: _237  and  _238
REMARK   99  A    between atoms: _237  and  _240
REMARK  100  A    between atoms: _240  and  _241
REMARK  101  A    between atoms: _240  and  _242
REMARK  102  A    between atoms: _244  and  _246
REMARK  103  A    between atoms: _246  and  _247
REMARK  104  A    between atoms: _246  and  _249
REMARK  105  A    between atoms: _249  and  _250
REMARK  106  A    between atoms: _253  and  _255
REMARK  107  A    between atoms: _255  and  _256
REMARK  108  A    between atoms: _258  and  _260
REMARK  109  A    between atoms: _260  and  _261
REMARK  110  A    between atoms: _260  and  _263
REMARK  111  A    between atoms: _263  and  _264
REMARK  112  A    between atoms: _264  and  _265
REMARK  113  A    between atoms: _265  and  _266
REMARK  114  A    between atoms: _275  and  _277
REMARK  115  A    between atoms: _277  and  _278
REMARK  116  A    between atoms: _277  and  _280
REMARK  117  A    between atoms: _280  and  _281
REMARK  118  A    between atoms: _286  and  _288
REMARK  119  A    between atoms: _288  and  _289
REMARK  120  A    between atoms: _288  and  _291
REMARK  121  A    between atoms: _291  and  _292
REMARK  122  A    between atoms: _292  and  _293
REMARK  123  A    between atoms: _293  and  _294
REMARK  124  A    between atoms: _303  and  _305
REMARK  125  A    between atoms: _305  and  _306
REMARK  126  A    between atoms: _305  and  _308
REMARK  127  A    between atoms: _308  and  _309
REMARK  128  A    between atoms: _312  and  _314
REMARK  129  A    between atoms: _314  and  _315
REMARK  130  A    between atoms: _314  and  _317
REMARK  131  A    between atoms: _317  and  _318
REMARK  132  A    between atoms: _321  and  _323
REMARK  133  A    between atoms: _323  and  _324
REMARK  134  A    between atoms: _323  and  _326
REMARK  135  A    between atoms: _326  and  _327
REMARK  136  A    between atoms: _332  and  _334
REMARK  137  A    between atoms: _334  and  _335
REMARK  138  A    between atoms: _334  and  _337
REMARK  139  A    between atoms: _337  and  _338
REMARK  140  A    between atoms: _341  and  _343
REMARK  141  A    between atoms: _343  and  _344
REMARK  142  A    between atoms: _346  and  _348
REMARK  143  A    between atoms: _348  and  _349
REMARK  144  A    between atoms: _352  and  _354
REMARK  145  A    between atoms: _354  and  _355
REMARK  146  A    between atoms: _354  and  _357
REMARK  147  A    between atoms: _357  and  _358
REMARK  148  A    between atoms: _361  and  _363
REMARK  149  A    between atoms: _363  and  _364
REMARK  150  A    between atoms: _363  and  _366
REMARK  151  A    between atoms: _366  and  _367
REMARK  152  A    between atoms: _370  and  _372
REMARK  153  A    between atoms: _372  and  _373
REMARK  154  A    between atoms: _372  and  _375
REMARK  155  A    between atoms: _375  and  _376
REMARK  156  A    between atoms: _379  and  _381
REMARK  157  A    between atoms: _381  and  _382
REMARK  158  A    between atoms: _381  and  _384
REMARK  159  A    between atoms: _387  and  _389
REMARK  160  A    between atoms: _389  and  _390
REMARK  161  A    between atoms: _389  and  _392
REMARK  162  A    between atoms: _392  and  _393
REMARK  163  A    between atoms: _393  and  _394
REMARK  164  A    between atoms: _394  and  _395
REMARK  165  A    between atoms: _395  and  _396
REMARK  166  A    between atoms: _400  and  _402
REMARK  167  A    between atoms: _402  and  _403
REMARK  168  A    between atoms: _402  and  _405
REMARK  169  A    between atoms: _405  and  _406
REMARK  170  A    between atoms: _406  and  _407
REMARK  171  A    between atoms: _409  and  _411
REMARK  172  A    between atoms: _411  and  _412
REMARK  173  A    between atoms: _411  and  _414
REMARK  174  A    between atoms: _414  and  _415
REMARK  175  A    between atoms: _418  and  _420
REMARK  176  A    between atoms: _420  and  _421
REMARK  177  A    between atoms: _423  and  _425
REMARK  178  A    between atoms: _425  and  _426
REMARK  179  A    between atoms: _428  and  _430
REMARK  180  A    between atoms: _430  and  _431
REMARK  181  A    between atoms: _430  and  _433
REMARK  182  A    between atoms: _433  and  _434
REMARK  183  A    between atoms: _437  and  _439
REMARK  184  A    between atoms: _439  and  _440
REMARK  185  A    between atoms: _442  and  _444
REMARK  186  A    between atoms: _444  and  _445
REMARK  187  A    between atoms: _447  and  _449
REMARK  188  A    between atoms: _449  and  _450
REMARK  189  A    between atoms: _449  and  _452
REMARK  190  A    between atoms: _452  and  _453
REMARK  191  A    between atoms: _459  and  _461
REMARK  192  A    between atoms: _461  and  _462
REMARK  193  A    between atoms: _461  and  _464
REMARK  194  A    between atoms: _464  and  _465
REMARK  195  A    between atoms: _468  and  _470
REMARK  196  A    between atoms: _470  and  _471
REMARK  197  A    between atoms: _470  and  _473
REMARK  198  A    between atoms: _473  and  _474
REMARK  199  A    between atoms: _477  and  _479
REMARK  200  A    between atoms: _479  and  _480
REMARK  201  A    between atoms: _479  and  _482
REMARK  202  A    between atoms: _482  and  _483
REMARK  203  A    between atoms: _487  and  _488
REMARK  204  A    between atoms: _493  and  _495
REMARK  205  A    between atoms: _495  and  _496
REMARK  206  A    between atoms: _495  and  _498
REMARK  207  A    between atoms: _501  and  _503
REMARK  208  A    between atoms: _503  and  _504
REMARK  209  A    between atoms: _503  and  _506
REMARK  210  A    between atoms: _506  and  _507
REMARK  211  A    between atoms: _512  and  _514
REMARK  212  A    between atoms: _514  and  _515
REMARK  213  A    between atoms: _514  and  _517
REMARK  214  A    between atoms: _517  and  _518
REMARK  215  A    between atoms: _521  and  _523
REMARK  216  A    between atoms: _523  and  _524
REMARK  217  A    between atoms: _523  and  _526
REMARK  218  A    between atoms: _526  and  _527
REMARK  219  A    between atoms: _530  and  _532
REMARK  220  A    between atoms: _532  and  _533
REMARK  221  A    between atoms: _535  and  _537
REMARK  222  A    between atoms: _537  and  _538
REMARK  223  A    between atoms: _537  and  _540
REMARK  224  A    between atoms: _540  and  _541
REMARK  225  A    between atoms: _541  and  _542
REMARK  226  A    between atoms: _542  and  _543
REMARK  227  A    between atoms: _552  and  _554
REMARK  228  A    between atoms: _554  and  _555
REMARK  229  A    between atoms: _554  and  _557
REMARK  230  A    between atoms: _557  and  _558
REMARK                            x       y       z     vdW  Elec       q    Type
REMARK                         _______ _______ _______ _____ _____    ______ ____
ROOT
ATOM      1  C   GLY A   5      11.939  67.701  13.888  0.00  0.00    +0.243 C 
ATOM      2  N   ILE A   6      11.171  66.620  13.972  0.00  0.00    -0.297 N 
ATOM      3  H   ILE A   6      11.012  66.170  14.896  0.00  0.00    +0.150 HD
ATOM      4  O   GLY A   5      12.056  68.320  12.840  0.00  0.00    -0.273 OA
ENDROOT
BRANCH   2   5
ATOM      5  CA  ILE A   6      10.554  66.065  12.785  0.00  0.00    +0.149 C 
BRANCH   5   6
ATOM      6  C   ILE A   6       9.670  67.054  12.050  0.00  0.00    +0.241 C 
ATOM      7  N   GLY A   7       8.954  67.881  12.785  0.00  0.00    -0.295 N 
ATOM      8  H   GLY A   7       9.089  67.907  13.816  0.00  0.00    +0.150 HD
ATOM      9  O   ILE A   6       9.586  67.073  10.817  0.00  0.00    -0.273 OA
BRANCH   7  10
ATOM     10  CA  GLY A   7       7.963  68.768  12.153  0.00  0.00    +0.176 C 
BRANCH  10  11
ATOM     11  C   GLY A   7       8.439  70.165  11.945  0.00  0.00    +0.243 C 
ATOM     12  N   GLY A   8       9.639  70.505  12.348  0.00  0.00    -0.295 N 
ATOM     13  H   GLY A   8      10.274  69.797  12.769  0.00  0.00    +0.150 HD
ATOM     14  O   GLY A   7       7.689  70.973  11.386  0.00  0.00    -0.273 OA
BRANCH  12  15
ATOM     15  CA  GLY A   8      10.071  71.890  12.197  0.00  0.00    +0.176 C 
BRANCH  15  16
ATOM     16  C   GLY A   8      10.789  72.381  13.434  0.00  0.00    +0.243 C 
ATOM     17  O   GLY A   8      11.040  71.644  14.370  0.00  0.00    -0.273 OA
ATOM     18  N   PHE A   9      11.140  73.634  13.470  0.00  0.00    -0.297 N 
ATOM     19  H   PHE A   9      10.896  74.229  12.653  0.00  0.00    +0.150 HD
BRANCH  18  20
ATOM     20  CA  PHE A   9      11.852  74.259  14.578  0.00  0.00    +0.153 C 
BRANCH  20  21
ATOM     21  C   PHE A   9      10.909  74.901  15.586  0.00  0.00    +0.241 C 
ATOM     22  N   ILE A  10      11.305  74.897  16.842  0.00  0.00    -0.298 N 
ATOM     23  H   ILE A  10      12.192  74.396  17.051  0.00  0.00    +0.150 HD
ATOM     24  O   PHE A   9       9.821  75.426  15.304  0.00  0.00    -0.273 OA
BRANCH  22  25
ATOM     25  CA  ILE A  10      10.634  75.516  17.954  0.00  0.00    +0.137 C 
BRANCH  25  26
ATOM     26  C   ILE A  10      11.664  76.261  18.817  0.00  0.00    +0.227 C 
ATOM     27  O   ILE A  10      12.859  75.935  18.820  0.00  0.00    -0.286 OA
ENDBRANCH  25  26
BRANCH  25  28
ATOM     28  CB  ILE A  10       9.910  74.468  18.825  0.00  0.00    +0.026 C 
ATOM     29  CG2 ILE A  10       8.929  73.684  17.963  0.00  0.00    +0.002 C 
BRANCH  28  30
ATOM     30  CG1 ILE A  10      10.841  73.526  19.582  0.00  0.00    +0.002 C 
ATOM     31  CD1 ILE A  10      10.197  72.636  20.637  0.00  0.00    +0.000 C 
ENDBRANCH  28  30
ENDBRANCH  25  28
ENDBRANCH  22  25
ENDBRANCH  20  21
BRANCH  20  32
ATOM     32  CB  PHE A   9      12.851  75.274  14.016  0.00  0.00    +0.055 C 
BRANCH  32  33
ATOM     33  CG  PHE A   9      14.227  74.734  13.629  0.00  0.00    -0.020 A 
ATOM     34  CD2 PHE A   9      15.295  74.724  14.510  0.00  0.00    -0.004 A 
ATOM     35  CE2 PHE A   9      16.535  74.227  14.153  0.00  0.00    -0.000 A 
ATOM     36  CZ  PHE A   9      16.749  73.722  12.878  0.00  0.00    -0.000 A 
ATOM     37  CE1 PHE A   9      15.702  73.723  11.980  0.00  0.00    -0.000 A 
ATOM     38  CD1 PHE A   9      14.463  74.222  12.356  0.00  0.00    -0.004 A 
ENDBRANCH  32  33
ENDBRANCH  20  32
ENDBRANCH  18  20
ENDBRANCH  15  16
ENDBRANCH  12  15
ENDBRANCH  10  11
ENDBRANCH   7  10
ENDBRANCH   5   6
BRANCH   5  39
ATOM     39  CB  ILE A   6       9.767  64.796  13.190  0.00  0.00    +0.027 C 
ATOM     40  CG2 ILE A   6       8.550  65.164  14.023  0.00  0.00    +0.002 C 
BRANCH  39  41
ATOM     41  CG1 ILE A   6       9.442  63.942  11.972  0.00  0.00    +0.002 C 
ATOM     42  CD1 ILE A   6      10.553  63.043  11.469  0.00  0.00    +0.000 C 
ENDBRANCH  39  41
ENDBRANCH   5  39
ENDBRANCH   2   5
BRANCH   1  43
ATOM     43  CA  GLY A   5      12.600  68.155  15.164  0.00  0.00    +0.176 C 
BRANCH  43  46
ATOM     44  C   GLY A   4      14.289  69.826  15.178  0.00  0.00    +0.243 C 
ATOM     45  O   GLY A   4      15.165  69.006  15.393  0.00  0.00    -0.273 OA
ATOM     46  N   GLY A   5      13.026  69.514  15.050  0.00  0.00    -0.295 N 
ATOM     47  H   GLY A   5      12.326  70.260  14.864  0.00  0.00    +0.150 HD
BRANCH  44  48
ATOM     48  CA  GLY A   4      14.631  71.282  15.013  0.00  0.00    +0.176 C 
BRANCH  48  51
ATOM     49  C   ILE A   3      14.802  72.653  17.025  0.00  0.00    +0.241 C 
ATOM     50  O   ILE A   3      13.662  73.094  16.986  0.00  0.00    -0.273 OA
ATOM     51  N   GLY A   4      15.339  71.794  16.188  0.00  0.00    -0.295 N 
ATOM     52  H   GLY A   4      16.309  71.464  16.368  0.00  0.00    +0.150 HD
BRANCH  49  53
ATOM     53  CA  ILE A   3      15.749  73.106  18.127  0.00  0.00    +0.149 C 
BRANCH  53  55
ATOM     54  C   MET A   2      16.390  75.407  18.411  0.00  0.00    +0.241 C 
ATOM     55  N   ILE A   3      15.432  74.512  18.420  0.00  0.00    -0.297 N 
ATOM     56  H   ILE A   3      14.454  74.794  18.633  0.00  0.00    +0.150 HD
ATOM     57  O   MET A   2      17.569  75.165  18.222  0.00  0.00    -0.273 OA
BRANCH  54  58
ATOM     58  CA  MET A   2      15.967  76.844  18.614  0.00  0.00    +0.149 C 
BRANCH  58  61
ATOM     59  C   LYS A   1      16.440  77.738  20.846  0.00  0.00    +0.238 C 
ATOM     60  O   LYS A   1      15.293  77.710  21.261  0.00  0.00    -0.274 OA
ATOM     61  N   MET A   2      16.802  77.448  19.621  0.00  0.00    -0.297 N 
ATOM     62  H   MET A   2      17.781  77.674  19.351  0.00  0.00    +0.150 HD
BRANCH  59  63
ATOM     63  CA  LYS A   1      17.581  78.104  21.776  0.00  0.00    +0.145 C 
BRANCH  63  64
ATOM     64  N   LYS A   1      17.117  79.160  22.644  0.00  0.00    -0.238 NA
ATOM     65  H   LYS A   1      16.105  79.214  22.878  0.00  0.00    +0.142 HD
ENDBRANCH  63  64
BRANCH  63  66
ATOM     66  CB  LYS A   1      17.980  76.958  22.700  0.00  0.00    +0.026 C 
BRANCH  66  67
ATOM     67  CG  LYS A   1      18.250  75.642  21.979  0.00  0.00    -0.000 C 
BRANCH  67  68
ATOM     68  CD  LYS A   1      19.717  75.614  21.574  0.00  0.00    -0.024 C 
BRANCH  68  69
ATOM     69  CE  LYS A   1      20.056  74.340  20.821  0.00  0.00    -0.086 C 
BRANCH  69  70
ATOM     70  NZ  LYS A   1      21.471  73.918  21.040  0.00  0.00    +0.380 N 
ATOM     71  HZ1 LYS A   1      21.628  73.747  22.054  0.00  0.00    -0.089 HD
ATOM     72  HZ2 LYS A   1      22.110  74.669  20.711  0.00  0.00    -0.089 HD
ATOM     73  HZ3 LYS A   1      21.657  73.045  20.507  0.00  0.00    -0.089 HD
ENDBRANCH  69  70
ENDBRANCH  68  69
ENDBRANCH  67  68
ENDBRANCH  66  67
ENDBRANCH  63  66
ENDBRANCH  59  63
ENDBRANCH  58  61
BRANCH  58  74
ATOM     74  CB  MET A   2      16.041  77.655  17.309  0.00  0.00    +0.041 C 
BRANCH  74  75
ATOM     75  CG  MET A   2      15.482  79.055  17.484  0.00  0.00    +0.060 C 
BRANCH  75  76
ATOM     76  SD  MET A   2      14.789  79.692  15.935  0.00  0.00    -0.139 S 
ATOM     77  CE  MET A   2      13.417  78.562  15.701  0.00  0.00    +0.069 C 
ENDBRANCH  75  76
ENDBRANCH  74  75
ENDBRANCH  58  74
ENDBRANCH  54  58
ENDBRANCH  53  55
BRANCH  53  78
ATOM     78  CB  ILE A   3      15.654  72.150  19.327  0.00  0.00    +0.027 C 
ATOM     79  CG2 ILE A   3      16.778  72.420  20.313  0.00  0.00    +0.002 C 
BRANCH  78  80
ATOM     80  CG1 ILE A   3      14.286  72.154  20.012  0.00  0.00    +0.002 C 
ATOM     81  CD1 ILE A   3      14.158  71.124  21.109  0.00  0.00    +0.000 C 
ENDBRANCH  78  80
ENDBRANCH  53  78
ENDBRANCH  49  53
ENDBRANCH  48  51
ENDBRANCH  44  48
ENDBRANCH  43  46
ENDBRANCH   1  43
TORSDOF 36
REMARK  Name = ../refined-set-2016/3bvb/3bvb_pocket.pdb
REMARK  230 active torsions:
REMARK  status: ('A' for Active; 'I' for Inactive)
REMARK    1  A    between atoms: _1  and  _3
REMARK    2  A    between atoms: _3  and  _4
REMARK    3  A    between atoms: _3  and  _6
REMARK    4  A    between atoms: _6  and  _7
REMARK    5  A    between atoms: _7  and  _8
REMARK    6  A    between atoms: _8  and  _9
REMARK    7  A    between atoms: _18  and  _20
REMARK    8  A    between atoms: _20  and  _21
REMARK    9  A    between atoms: _20  and  _23
REMARK   10  A    between atoms: _23  and  _24
REMARK   11  A    between atoms: _27  and  _29
REMARK   12  A    between atoms: _29  and  _30
REMARK   13  A    between atoms: _29  and  _32
REMARK   14  A    between atoms: _32  and  _33
REMARK   15  A    between atoms: _36  and  _38
REMARK   16  A    between atoms: _38  and  _39
REMARK   17  A    between atoms: _38  and  _41
REMARK   18  A    between atoms: _41  and  _42
REMARK   19  A    between atoms: _47  and  _49
REMARK   20  A    between atoms: _49  and  _50
REMARK   21  A    between atoms: _49  and  _52
REMARK   22  A    between atoms: _52  and  _53
REMARK   23  A    between atoms: _56  and  _58
REMARK   24  A    between atoms: _58  and  _59
REMARK   25  A    between atoms: _61  and  _63
REMARK   26  A    between atoms: _63  and  _64
REMARK   27  A    between atoms: _67  and  _69
REMARK   28  A    between atoms: _69  and  _70
REMARK   29  A    between atoms: _69  and  _72
REMARK   30  A    between atoms: _72  and  _73
REMARK   31  A    between atoms: _76  and  _78
REMARK   32  A    between atoms: _78  and  _79
REMARK   33  A    between atoms: _78  and  _81
REMARK   34  A    between atoms: _81  and  _82
REMARK   35  A    between atoms: _85  and  _87
REMARK   36  A    between atoms: _87  and  _88
REMARK   37  A    between atoms: _87  and  _90
REMARK   38  A    between atoms: _90  and  _91
REMARK   39  A    between atoms: _94  and  _96
REMARK   40  A    between atoms: _96  and  _97
REMARK   41  A    between atoms: _96  and  _99
REMARK   42  A    between atoms: _102  and  _104
REMARK   43  A    between atoms: _104  and  _105
REMARK   44  A    between atoms: _104  and  _107
REMARK   45  A    between atoms: _107  and  _108
REMARK   46  A    between atoms: _108  and  _109
REMARK   47  A    between atoms: _109  and  _110
REMARK   48  A    between atoms: _110  and  _111
REMARK   49  A    between atoms: _115  and  _117
REMARK   50  A    between atoms: _117  and  _118
REMARK   51  A    between atoms: _117  and  _120
REMARK   52  A    between atoms: _120  and  _121
REMARK   53  A    between atoms: _121  and  _122
REMARK   54  A    between atoms: _124  and  _126
REMARK   55  A    between atoms: _126  and  _127
REMARK   56  A    between atoms: _126  and  _129
REMARK   57  A    between atoms: _129  and  _130
REMARK   58  A    between atoms: _133  and  _135
REMARK   59  A    between atoms: _135  and  _136
REMARK   60  A    between atoms: _138  and  _140
REMARK   61  A    between atoms: _140  and  _141
REMARK   62  A    between atoms: _143  and  _145
REMARK   63  A    between atoms: _145  and  _146
REMARK   64  A    between atoms: _145  and  _148
REMARK   65  A    between atoms: _148  and  _149
REMARK   66  A    between atoms: _152  and  _154
REMARK   67  A    between atoms: _154  and  _155
REMARK   68  A    between atoms: _157  and  _159
REMARK   69  A    between atoms: _159  and  _160
REMARK   70  A    between atoms: _162  and  _164
REMARK   71  A    between atoms: _164  and  _165
REMARK   72  A    between atoms: _164  and  _167
REMARK   73  A    between atoms: _167  and  _168
REMARK   74  A    between atoms: _174  and  _176
REMARK   75  A    between atoms: _176  and  _177
REMARK   76  A    between atoms: _176  and  _179
REMARK   77  A    between atoms: _179  and  _180
REMARK   78  A    between atoms: _183  and  _185
REMARK   79  A    between atoms: _185  and  _186
REMARK   80  A    between atoms: _185  and  _188
REMARK   81  A    between atoms: _191  and  _193
REMARK   82  A    between atoms: _193  and  _194
REMARK   83  A    between atoms: _193  and  _196
REMARK   84  A    between atoms: _196  and  _197
REMARK   85  A    between atoms: _200  and  _202
REMARK   86  A    between atoms: _202  and  _203
REMARK   87  A    between atoms: _202  and  _205
REMARK   88  A    between atoms: _205  and  _206
REMARK   89  A    between atoms: _210  and  _211
REMARK   90  A    between atoms: _216  and  _218
REMARK   91  A    between atoms: _218  and  _219
REMARK   92  A    between atoms: _218  and  _221
REMARK   93  A    between atoms: _224  and  _226
REMARK   94  A    between atoms: _226  and  _227
REMARK   95  A    between atoms: _226  and  _229
REMARK   96  A    between atoms: _229  and  _230
REMARK   97  A    between atoms: _235  and  _237
REMARK   98  A    between atoms: _237  and  _238
REMARK   99  A    between atoms: _237  and  _240
REMARK  100  A    between atoms: _240  and  _241
REMARK  101  A    between atoms: _240  and  _242
REMARK  102  A    between atoms: _244  and  _246
REMARK  103  A    between atoms: _246  and  _247
REMARK  104  A    between atoms: _246  and  _249
REMARK  105  A    between atoms: _249  and  _250
REMARK  106  A    between atoms: _253  and  _255
REMARK  107  A    between atoms: _255  and  _256
REMARK  108  A    between atoms: _258  and  _260
REMARK  109  A    between atoms: _260  and  _261
REMARK  110  A    between atoms: _260  and  _263
REMARK  111  A    between atoms: _263  and  _264
REMARK  112  A    between atoms: _264  and  _265
REMARK  113  A    between atoms: _265  and  _266
REMARK  114  A    between atoms: _275  and  _277
REMARK  115  A    between atoms: _277  and  _278
REMARK  116  A    between atoms: _277  and  _280
REMARK  117  A    between atoms: _280  and  _281
REMARK  118  A    between atoms: _286  and  _288
REMARK  119  A    between atoms: _288  and  _289
REMARK  120  A    between atoms: _288  and  _291
REMARK  121  A    between atoms: _291  and  _292
REMARK  122  A    between atoms: _292  and  _293
REMARK  123  A    between atoms: _293  and  _294
REMARK  124  A    between atoms: _303  and  _305
REMARK  125  A    between atoms: _305  and  _306
REMARK  126  A    between atoms: _305  and  _308
REMARK  127  A    between atoms: _308  and  _309
REMARK  128  A    between atoms: _312  and  _314
REMARK  129  A    between atoms: _314  and  _315
REMARK  130  A    between atoms: _314  and  _317
REMARK  131  A    between atoms: _317  and  _318
REMARK  132  A    between atoms: _321  and  _323
REMARK  133  A    between atoms: _323  and  _324
REMARK  134  A    between atoms: _323  and  _326
REMARK  135  A    between atoms: _326  and  _327
REMARK  136  A    between atoms: _332  and  _334
REMARK  137  A    between atoms: _334  and  _335
REMARK  138  A    between atoms: _334  and  _337
REMARK  139  A    between atoms: _337  and  _338
REMARK  140  A    between atoms: _341  and  _343
REMARK  141  A    between atoms: _343  and  _344
REMARK  142  A    between atoms: _346  and  _348
REMARK  143  A    between atoms: _348  and  _349
REMARK  144  A    between atoms: _352  and  _354
REMARK  145  A    between atoms: _354  and  _355
REMARK  146  A    between atoms: _354  and  _357
REMARK  147  A    between atoms: _357  and  _358
REMARK  148  A    between atoms: _361  and  _363
REMARK  149  A    between atoms: _363  and  _364
REMARK  150  A    between atoms: _363  and  _366
REMARK  151  A    between atoms: _366  and  _367
REMARK  152  A    between atoms: _370  and  _372
REMARK  153  A    between atoms: _372  and  _373
REMARK  154  A    between atoms: _372  and  _375
REMARK  155  A    between atoms: _375  and  _376
REMARK  156  A    between atoms: _379  and  _381
REMARK  157  A    between atoms: _381  and  _382
REMARK  158  A    between atoms: _381  and  _384
REMARK  159  A    between atoms: _387  and  _389
REMARK  160  A    between atoms: _389  and  _390
REMARK  161  A    between atoms: _389  and  _392
REMARK  162  A    between atoms: _392  and  _393
REMARK  163  A    between atoms: _393  and  _394
REMARK  164  A    between atoms: _394  and  _395
REMARK  165  A    between atoms: _395  and  _396
REMARK  166  A    between atoms: _400  and  _402
REMARK  167  A    between atoms: _402  and  _403
REMARK  168  A    between atoms: _402  and  _405
REMARK  169  A    between atoms: _405  and  _406
REMARK  170  A    between atoms: _406  and  _407
REMARK  171  A    between atoms: _409  and  _411
REMARK  172  A    between atoms: _411  and  _412
REMARK  173  A    between atoms: _411  and  _414
REMARK  174  A    between atoms: _414  and  _415
REMARK  175  A    between atoms: _418  and  _420
REMARK  176  A    between atoms: _420  and  _421
REMARK  177  A    between atoms: _423  and  _425
REMARK  178  A    between atoms: _425  and  _426
REMARK  179  A    between atoms: _428  and  _430
REMARK  180  A    between atoms: _430  and  _431
REMARK  181  A    between atoms: _430  and  _433
REMARK  182  A    between atoms: _433  and  _434
REMARK  183  A    between atoms: _437  and  _439
REMARK  184  A    between atoms: _439  and  _440
REMARK  185  A    between atoms: _442  and  _444
REMARK  186  A    between atoms: _444  and  _445
REMARK  187  A    between atoms: _447  and  _449
REMARK  188  A    between atoms: _449  and  _450
REMARK  189  A    between atoms: _449  and  _452
REMARK  190  A    between atoms: _452  and  _453
REMARK  191  A    between atoms: _459  and  _461
REMARK  192  A    between atoms: _461  and  _462
REMARK  193  A    between atoms: _461  and  _464
REMARK  194  A    between atoms: _464  and  _465
REMARK  195  A    between atoms: _468  and  _470
REMARK  196  A    between atoms: _470  and  _471
REMARK  197  A    between atoms: _470  and  _473
REMARK  198  A    between atoms: _473  and  _474
REMARK  199  A    between atoms: _477  and  _479
REMARK  200  A    between atoms: _479  and  _480
REMARK  201  A    between atoms: _479  and  _482
REMARK  202  A    between atoms: _482  and  _483
REMARK  203  A    between atoms: _487  and  _488
REMARK  204  A    between atoms: _493  and  _495
REMARK  205  A    between atoms: _495  and  _496
REMARK  206  A    between atoms: _495  and  _498
REMARK  207  A    between atoms: _501  and  _503
REMARK  208  A    between atoms: _503  and  _504
REMARK  209  A    between atoms: _503  and  _506
REMARK  210  A    between atoms: _506  and  _507
REMARK  211  A    between atoms: _512  and  _514
REMARK  212  A    between atoms: _514  and  _515
REMARK  213  A    between atoms: _514  and  _517
REMARK  214  A    between atoms: _517  and  _518
REMARK  215  A    between atoms: _521  and  _523
REMARK  216  A    between atoms: _523  and  _524
REMARK  217  A    between atoms: _523  and  _526
REMARK  218  A    between atoms: _526  and  _527
REMARK  219  A    between atoms: _530  and  _532
REMARK  220  A    between atoms: _532  and  _533
REMARK  221  A    between atoms: _535  and  _537
REMARK  222  A    between atoms: _537  and  _538
REMARK  223  A    between atoms: _537  and  _540
REMARK  224  A    between atoms: _540  and  _541
REMARK  225  A    between atoms: _541  and  _542
REMARK  226  A    between atoms: _542  and  _543
REMARK  227  A    between atoms: _552  and  _554
REMARK  228  A    between atoms: _554  and  _555
REMARK  229  A    between atoms: _554  and  _557
REMARK  230  A    between atoms: _557  and  _558
REMARK                            x       y       z     vdW  Elec       q    Type
REMARK                         _______ _______ _______ _____ _____    ______ ____
ROOT
ATOM      1  CA  LEU A   1      15.774  72.674  27.483  0.00  0.00    +0.133 C 
ENDROOT
BRANCH   1   2
ATOM      2  N   LEU A   1      16.636  71.804  28.292  0.00  0.00    -0.239 NA
ATOM      3  H   LEU A   1      16.739  70.811  28.001  0.00  0.00    +0.142 HD
ENDBRANCH   1   2
BRANCH   1   4
ATOM      4  C   LEU A   1      14.326  72.464  27.966  0.00  0.00    +0.224 C 
ATOM      5  O   LEU A   1      13.930  71.326  28.212  0.00  0.00    -0.287 OA
ENDBRANCH   1   4
BRANCH   1   6
ATOM      6  CB  LEU A   1      15.920  72.379  26.013  0.00  0.00    +0.025 C 
BRANCH   6   7
ATOM      7  CG  LEU A   1      17.357  72.352  25.466  0.00  0.00    +0.002 C 
ATOM      8  CD2 LEU A   1      18.132  73.638  25.700  0.00  0.00    +0.000 C 
ATOM      9  CD1 LEU A   1      17.355  72.028  23.972  0.00  0.00    +0.000 C 
ENDBRANCH   6   7
ENDBRANCH   1   6
TORSDOF 4
REMARK  Name = ../refined-set-2016/3bvb/3bvb_pocket.pdb
REMARK  230 active torsions:
REMARK  status: ('A' for Active; 'I' for Inactive)
REMARK    1  A    between atoms: _1  and  _3
REMARK    2  A    between atoms: _3  and  _4
REMARK    3  A    between atoms: _3  and  _6
REMARK    4  A    between atoms: _6  and  _7
REMARK    5  A    between atoms: _7  and  _8
REMARK    6  A    between atoms: _8  and  _9
REMARK    7  A    between atoms: _18  and  _20
REMARK    8  A    between atoms: _20  and  _21
REMARK    9  A    between atoms: _20  and  _23
REMARK   10  A    between atoms: _23  and  _24
REMARK   11  A    between atoms: _27  and  _29
REMARK   12  A    between atoms: _29  and  _30
REMARK   13  A    between atoms: _29  and  _32
REMARK   14  A    between atoms: _32  and  _33
REMARK   15  A    between atoms: _36  and  _38
REMARK   16  A    between atoms: _38  and  _39
REMARK   17  A    between atoms: _38  and  _41
REMARK   18  A    between atoms: _41  and  _42
REMARK   19  A    between atoms: _47  and  _49
REMARK   20  A    between atoms: _49  and  _50
REMARK   21  A    between atoms: _49  and  _52
REMARK   22  A    between atoms: _52  and  _53
REMARK   23  A    between atoms: _56  and  _58
REMARK   24  A    between atoms: _58  and  _59
REMARK   25  A    between atoms: _61  and  _63
REMARK   26  A    between atoms: _63  and  _64
REMARK   27  A    between atoms: _67  and  _69
REMARK   28  A    between atoms: _69  and  _70
REMARK   29  A    between atoms: _69  and  _72
REMARK   30  A    between atoms: _72  and  _73
REMARK   31  A    between atoms: _76  and  _78
REMARK   32  A    between atoms: _78  and  _79
REMARK   33  A    between atoms: _78  and  _81
REMARK   34  A    between atoms: _81  and  _82
REMARK   35  A    between atoms: _85  and  _87
REMARK   36  A    between atoms: _87  and  _88
REMARK   37  A    between atoms: _87  and  _90
REMARK   38  A    between atoms: _90  and  _91
REMARK   39  A    between atoms: _94  and  _96
REMARK   40  A    between atoms: _96  and  _97
REMARK   41  A    between atoms: _96  and  _99
REMARK   42  A    between atoms: _102  and  _104
REMARK   43  A    between atoms: _104  and  _105
REMARK   44  A    between atoms: _104  and  _107
REMARK   45  A    between atoms: _107  and  _108
REMARK   46  A    between atoms: _108  and  _109
REMARK   47  A    between atoms: _109  and  _110
REMARK   48  A    between atoms: _110  and  _111
REMARK   49  A    between atoms: _115  and  _117
REMARK   50  A    between atoms: _117  and  _118
REMARK   51  A    between atoms: _117  and  _120
REMARK   52  A    between atoms: _120  and  _121
REMARK   53  A    between atoms: _121  and  _122
REMARK   54  A    between atoms: _124  and  _126
REMARK   55  A    between atoms: _126  and  _127
REMARK   56  A    between atoms: _126  and  _129
REMARK   57  A    between atoms: _129  and  _130
REMARK   58  A    between atoms: _133  and  _135
REMARK   59  A    between atoms: _135  and  _136
REMARK   60  A    between atoms: _138  and  _140
REMARK   61  A    between atoms: _140  and  _141
REMARK   62  A    between atoms: _143  and  _145
REMARK   63  A    between atoms: _145  and  _146
REMARK   64  A    between atoms: _145  and  _148
REMARK   65  A    between atoms: _148  and  _149
REMARK   66  A    between atoms: _152  and  _154
REMARK   67  A    between atoms: _154  and  _155
REMARK   68  A    between atoms: _157  and  _159
REMARK   69  A    between atoms: _159  and  _160
REMARK   70  A    between atoms: _162  and  _164
REMARK   71  A    between atoms: _164  and  _165
REMARK   72  A    between atoms: _164  and  _167
REMARK   73  A    between atoms: _167  and  _168
REMARK   74  A    between atoms: _174  and  _176
REMARK   75  A    between atoms: _176  and  _177
REMARK   76  A    between atoms: _176  and  _179
REMARK   77  A    between atoms: _179  and  _180
REMARK   78  A    between atoms: _183  and  _185
REMARK   79  A    between atoms: _185  and  _186
REMARK   80  A    between atoms: _185  and  _188
REMARK   81  A    between atoms: _191  and  _193
REMARK   82  A    between atoms: _193  and  _194
REMARK   83  A    between atoms: _193  and  _196
REMARK   84  A    between atoms: _196  and  _197
REMARK   85  A    between atoms: _200  and  _202
REMARK   86  A    between atoms: _202  and  _203
REMARK   87  A    between atoms: _202  and  _205
REMARK   88  A    between atoms: _205  and  _206
REMARK   89  A    between atoms: _210  and  _211
REMARK   90  A    between atoms: _216  and  _218
REMARK   91  A    between atoms: _218  and  _219
REMARK   92  A    between atoms: _218  and  _221
REMARK   93  A    between atoms: _224  and  _226
REMARK   94  A    between atoms: _226  and  _227
REMARK   95  A    between atoms: _226  and  _229
REMARK   96  A    between atoms: _229  and  _230
REMARK   97  A    between atoms: _235  and  _237
REMARK   98  A    between atoms: _237  and  _238
REMARK   99  A    between atoms: _237  and  _240
REMARK  100  A    between atoms: _240  and  _241
REMARK  101  A    between atoms: _240  and  _242
REMARK  102  A    between atoms: _244  and  _246
REMARK  103  A    between atoms: _246  and  _247
REMARK  104  A    between atoms: _246  and  _249
REMARK  105  A    between atoms: _249  and  _250
REMARK  106  A    between atoms: _253  and  _255
REMARK  107  A    between atoms: _255  and  _256
REMARK  108  A    between atoms: _258  and  _260
REMARK  109  A    between atoms: _260  and  _261
REMARK  110  A    between atoms: _260  and  _263
REMARK  111  A    between atoms: _263  and  _264
REMARK  112  A    between atoms: _264  and  _265
REMARK  113  A    between atoms: _265  and  _266
REMARK  114  A    between atoms: _275  and  _277
REMARK  115  A    between atoms: _277  and  _278
REMARK  116  A    between atoms: _277  and  _280
REMARK  117  A    between atoms: _280  and  _281
REMARK  118  A    between atoms: _286  and  _288
REMARK  119  A    between atoms: _288  and  _289
REMARK  120  A    between atoms: _288  and  _291
REMARK  121  A    between atoms: _291  and  _292
REMARK  122  A    between atoms: _292  and  _293
REMARK  123  A    between atoms: _293  and  _294
REMARK  124  A    between atoms: _303  and  _305
REMARK  125  A    between atoms: _305  and  _306
REMARK  126  A    between atoms: _305  and  _308
REMARK  127  A    between atoms: _308  and  _309
REMARK  128  A    between atoms: _312  and  _314
REMARK  129  A    between atoms: _314  and  _315
REMARK  130  A    between atoms: _314  and  _317
REMARK  131  A    between atoms: _317  and  _318
REMARK  132  A    between atoms: _321  and  _323
REMARK  133  A    between atoms: _323  and  _324
REMARK  134  A    between atoms: _323  and  _326
REMARK  135  A    between atoms: _326  and  _327
REMARK  136  A    between atoms: _332  and  _334
REMARK  137  A    between atoms: _334  and  _335
REMARK  138  A    between atoms: _334  and  _337
REMARK  139  A    between atoms: _337  and  _338
REMARK  140  A    between atoms: _341  and  _343
REMARK  141  A    between atoms: _343  and  _344
REMARK  142  A    between atoms: _346  and  _348
REMARK  143  A    between atoms: _348  and  _349
REMARK  144  A    between atoms: _352  and  _354
REMARK  145  A    between atoms: _354  and  _355
REMARK  146  A    between atoms: _354  and  _357
REMARK  147  A    between atoms: _357  and  _358
REMARK  148  A    between atoms: _361  and  _363
REMARK  149  A    between atoms: _363  and  _364
REMARK  150  A    between atoms: _363  and  _366
REMARK  151  A    between atoms: _366  and  _367
REMARK  152  A    between atoms: _370  and  _372
REMARK  153  A    between atoms: _372  and  _373
REMARK  154  A    between atoms: _372  and  _375
REMARK  155  A    between atoms: _375  and  _376
REMARK  156  A    between atoms: _379  and  _381
REMARK  157  A    between atoms: _381  and  _382
REMARK  158  A    between atoms: _381  and  _384
REMARK  159  A    between atoms: _387  and  _389
REMARK  160  A    between atoms: _389  and  _390
REMARK  161  A    between atoms: _389  and  _392
REMARK  162  A    between atoms: _392  and  _393
REMARK  163  A    between atoms: _393  and  _394
REMARK  164  A    between atoms: _394  and  _395
REMARK  165  A    between atoms: _395  and  _396
REMARK  166  A    between atoms: _400  and  _402
REMARK  167  A    between atoms: _402  and  _403
REMARK  168  A    between atoms: _402  and  _405
REMARK  169  A    between atoms: _405  and  _406
REMARK  170  A    between atoms: _406  and  _407
REMARK  171  A    between atoms: _409  and  _411
REMARK  172  A    between atoms: _411  and  _412
REMARK  173  A    between atoms: _411  and  _414
REMARK  174  A    between atoms: _414  and  _415
REMARK  175  A    between atoms: _418  and  _420
REMARK  176  A    between atoms: _420  and  _421
REMARK  177  A    between atoms: _423  and  _425
REMARK  178  A    between atoms: _425  and  _426
REMARK  179  A    between atoms: _428  and  _430
REMARK  180  A    between atoms: _430  and  _431
REMARK  181  A    between atoms: _430  and  _433
REMARK  182  A    between atoms: _433  and  _434
REMARK  183  A    between atoms: _437  and  _439
REMARK  184  A    between atoms: _439  and  _440
REMARK  185  A    between atoms: _442  and  _444
REMARK  186  A    between atoms: _444  and  _445
REMARK  187  A    between atoms: _447  and  _449
REMARK  188  A    between atoms: _449  and  _450
REMARK  189  A    between atoms: _449  and  _452
REMARK  190  A    between atoms: _452  and  _453
REMARK  191  A    between atoms: _459  and  _461
REMARK  192  A    between atoms: _461  and  _462
REMARK  193  A    between atoms: _461  and  _464
REMARK  194  A    between atoms: _464  and  _465
REMARK  195  A    between atoms: _468  and  _470
REMARK  196  A    between atoms: _470  and  _471
REMARK  197  A    between atoms: _470  and  _473
REMARK  198  A    between atoms: _473  and  _474
REMARK  199  A    between atoms: _477  and  _479
REMARK  200  A    between atoms: _479  and  _480
REMARK  201  A    between atoms: _479  and  _482
REMARK  202  A    between atoms: _482  and  _483
REMARK  203  A    between atoms: _487  and  _488
REMARK  204  A    between atoms: _493  and  _495
REMARK  205  A    between atoms: _495  and  _496
REMARK  206  A    between atoms: _495  and  _498
REMARK  207  A    between atoms: _501  and  _503
REMARK  208  A    between atoms: _503  and  _504
REMARK  209  A    between atoms: _503  and  _506
REMARK  210  A    between atoms: _506  and  _507
REMARK  211  A    between atoms: _512  and  _514
REMARK  212  A    between atoms: _514  and  _515
REMARK  213  A    between atoms: _514  and  _517
REMARK  214  A    between atoms: _517  and  _518
REMARK  215  A    between atoms: _521  and  _523
REMARK  216  A    between atoms: _523  and  _524
REMARK  217  A    between atoms: _523  and  _526
REMARK  218  A    between atoms: _526  and  _527
REMARK  219  A    between atoms: _530  and  _532
REMARK  220  A    between atoms: _532  and  _533
REMARK  221  A    between atoms: _535  and  _537
REMARK  222  A    between atoms: _537  and  _538
REMARK  223  A    between atoms: _537  and  _540
REMARK  224  A    between atoms: _540  and  _541
REMARK  225  A    between atoms: _541  and  _542
REMARK  226  A    between atoms: _542  and  _543
REMARK  227  A    between atoms: _552  and  _554
REMARK  228  A    between atoms: _554  and  _555
REMARK  229  A    between atoms: _554  and  _557
REMARK  230  A    between atoms: _557  and  _558
REMARK                            x       y       z     vdW  Elec       q    Type
REMARK                         _______ _______ _______ _____ _____    ______ ____
ROOT
ATOM      1  C   ILE A   5      14.729  63.654  27.034  0.00  0.00    +0.241 C 
ATOM      2  N   ILE A   6      15.446  62.572  27.300  0.00  0.00    -0.297 N 
ATOM      3  H   ILE A   6      14.997  61.640  27.198  0.00  0.00    +0.150 HD
ATOM      4  O   ILE A   5      15.112  64.812  27.241  0.00  0.00    -0.273 OA
ENDROOT
BRANCH   1   5
ATOM      5  CA  ILE A   5      13.372  63.416  26.386  0.00  0.00    +0.149 C 
BRANCH   5   8
ATOM      6  C   ASN A   4      11.256  63.550  27.544  0.00  0.00    +0.241 C 
ATOM      7  O   ASN A   4      11.060  62.324  27.507  0.00  0.00    -0.273 OA
ATOM      8  N   ILE A   5      12.326  64.172  27.066  0.00  0.00    -0.297 N 
ATOM      9  H   ILE A   5      12.419  65.202  27.176  0.00  0.00    +0.150 HD
BRANCH   6  10
ATOM     10  CA  ASN A   4      10.203  64.450  28.177  0.00  0.00    +0.158 C 
BRANCH  10  12
ATOM     11  C   VAL A   3       8.599  64.244  26.398  0.00  0.00    +0.241 C 
ATOM     12  N   ASN A   4       8.884  64.050  27.676  0.00  0.00    -0.297 N 
ATOM     13  H   ASN A   4       8.184  63.621  28.314  0.00  0.00    +0.150 HD
ATOM     14  O   VAL A   3       9.394  64.850  25.652  0.00  0.00    -0.273 OA
BRANCH  11  15
ATOM     15  CA  VAL A   3       7.278  63.703  25.874  0.00  0.00    +0.149 C 
BRANCH  15  18
ATOM     16  C   PRO A   2       5.597  64.788  24.424  0.00  0.00    +0.241 C 
ATOM     17  O   PRO A   2       4.621  64.317  24.993  0.00  0.00    -0.273 OA
ATOM     18  N   VAL A   3       6.835  64.529  24.766  0.00  0.00    -0.297 N 
ATOM     19  H   VAL A   3       7.579  64.961  24.182  0.00  0.00    +0.150 HD
BRANCH  16  23
ATOM     20  C   THR A   1       6.741  67.632  23.841  0.00  0.00    +0.244 C 
ATOM     21  O   THR A   1       6.132  67.803  24.909  0.00  0.00    -0.273 OA
ATOM     22  N   PRO A   2       6.438  66.673  22.977  0.00  0.00    -0.272 N 
ATOM     23  CA  PRO A   2       5.373  65.708  23.234  0.00  0.00    +0.152 C 
ATOM     24  CB  PRO A   2       5.396  64.828  21.978  0.00  0.00    +0.031 C 
ATOM     25  CG  PRO A   2       5.862  65.802  20.940  0.00  0.00    +0.024 C 
ATOM     26  CD  PRO A   2       7.043  66.421  21.642  0.00  0.00    +0.094 C 
BRANCH  20  27
ATOM     27  CA  THR A   1       7.871  68.614  23.537  0.00  0.00    +0.172 C 
BRANCH  27  28
ATOM     28  N   THR A   1       7.489  69.903  24.096  0.00  0.00    -0.236 NA
ATOM     29  H   THR A   1       7.637  70.086  25.109  0.00  0.00    +0.142 HD
ENDBRANCH  27  28
BRANCH  27  30
ATOM     30  CB  THR A   1       9.217  68.128  24.093  0.00  0.00    +0.135 C 
ATOM     31  CG2 THR A   1       9.252  68.136  25.612  0.00  0.00    +0.034 C 
BRANCH  30  32
ATOM     32  OG1 THR A   1       9.411  66.777  23.679  0.00  0.00    -0.383 OA
ATOM     33  HG1 THR A   1       8.675  66.216  24.031  0.00  0.00    +0.210 HD
ENDBRANCH  30  32
ENDBRANCH  27  30
ENDBRANCH  20  27
ENDBRANCH  16  23
ENDBRANCH  15  18
BRANCH  15  34
ATOM     34  CB  VAL A   3       7.512  62.259  25.394  0.00  0.00    +0.027 C 
ATOM     35  CG2 VAL A   3       8.319  61.419  26.371  0.00  0.00    +0.002 C 
ATOM     36  CG1 VAL A   3       6.161  61.614  25.098  0.00  0.00    +0.002 C 
ENDBRANCH  15  34
ENDBRANCH  11  15
ENDBRANCH  10  12
BRANCH  10  37
ATOM     37  CB  ASN A   4      10.229  64.292  29.680  0.00  0.00    +0.114 C 
BRANCH  37  38
ATOM     38  CG  ASN A   4       9.238  65.192  30.403  0.00  0.00    +0.222 C 
ATOM     39  ND2 ASN A   4       8.680  64.692  31.465  0.00  0.00    -0.329 N 
ATOM     40 HD21 ASN A   4       8.016  65.266  32.023  0.00  0.00    +0.145 HD
ATOM     41 HD22 ASN A   4       8.898  63.718  31.757  0.00  0.00    +0.145 HD
ATOM     42  OD1 ASN A   4       9.041  66.333  29.982  0.00  0.00    -0.275 OA
ENDBRANCH  37  38
ENDBRANCH  10  37
ENDBRANCH   6  10
ENDBRANCH   5   8
BRANCH   5  43
ATOM     43  CB  ILE A   5      13.462  64.058  24.979  0.00  0.00    +0.027 C 
ATOM     44  CG2 ILE A   5      14.807  63.821  24.306  0.00  0.00    +0.002 C 
BRANCH  43  45
ATOM     45  CG1 ILE A   5      12.278  63.650  24.075  0.00  0.00    +0.002 C 
ATOM     46  CD1 ILE A   5      12.044  64.597  22.930  0.00  0.00    +0.000 C 
ENDBRANCH  43  45
ENDBRANCH   5  43
ENDBRANCH   1   5
BRANCH   2  47
ATOM     47  CA  ILE A   6      16.822  62.632  27.725  0.00  0.00    +0.149 C 
BRANCH  47  48
ATOM     48  C   ILE A   6      17.703  62.433  26.495  0.00  0.00    +0.241 C 
ATOM     49  N   GLY A   7      18.421  63.489  26.123  0.00  0.00    -0.295 N 
ATOM     50  H   GLY A   7      18.373  64.371  26.672  0.00  0.00    +0.150 HD
ATOM     51  O   ILE A   6      17.654  61.346  25.911  0.00  0.00    -0.273 OA
BRANCH  49  52
ATOM     52  CA  GLY A   7      19.268  63.409  24.954  0.00  0.00    +0.176 C 
BRANCH  52  53
ATOM     53  C   GLY A   7      20.702  63.104  25.242  0.00  0.00    +0.243 C 
ATOM     54  O   GLY A   7      21.059  62.861  26.408  0.00  0.00    -0.273 OA
ATOM     55  N   ARG A   8      21.524  63.128  24.185  0.00  0.00    -0.297 N 
ATOM     56  H   ARG A   8      21.195  63.494  23.269  0.00  0.00    +0.150 HD
BRANCH  55  57
ATOM     57  CA  ARG A   8      22.873  62.638  24.337  0.00  0.00    +0.149 C 
BRANCH  57  58
ATOM     58  C   ARG A   8      23.685  63.434  25.322  0.00  0.00    +0.241 C 
ATOM     59  O   ARG A   8      24.621  62.888  25.907  0.00  0.00    -0.273 OA
ATOM     60  N   ASN A   9      23.393  64.710  25.477  0.00  0.00    -0.298 N 
ATOM     61  H   ASN A   9      22.625  65.147  24.928  0.00  0.00    +0.150 HD
BRANCH  60  62
ATOM     62  CA  ASN A   9      24.175  65.510  26.444  0.00  0.00    +0.146 C 
BRANCH  62  63
ATOM     63  C   ASN A   9      24.135  64.916  27.850  0.00  0.00    +0.227 C 
ATOM     64  O   ASN A   9      25.168  65.029  28.566  0.00  0.00    -0.286 OA
ENDBRANCH  62  63
BRANCH  62  65
ATOM     65  CB  ASN A   9      23.698  66.945  26.486  0.00  0.00    +0.112 C 
BRANCH  65  66
ATOM     66  CG  ASN A   9      22.432  67.214  27.215  0.00  0.00    +0.222 C 
ATOM     67  OD1 ASN A   9      22.397  68.081  28.140  0.00  0.00    -0.275 OA
ATOM     68  ND2 ASN A   9      21.364  66.566  26.820  0.00  0.00    -0.329 N 
ATOM     69 HD21 ASN A   9      20.445  66.755  27.269  0.00  0.00    +0.145 HD
ATOM     70 HD22 ASN A   9      21.435  65.862  26.058  0.00  0.00    +0.145 HD
ENDBRANCH  65  66
ENDBRANCH  62  65
ENDBRANCH  60  62
ENDBRANCH  57  58
BRANCH  57  71
ATOM     71  CB  ARG A   8      23.572  62.583  22.981  0.00  0.00    +0.033 C 
BRANCH  71  72
ATOM     72  CG  ARG A   8      22.967  61.534  22.058  0.00  0.00    +0.045 C 
BRANCH  72  73
ATOM     73  CD  ARG A   8      23.731  61.376  20.746  0.00  0.00    +0.174 C 
BRANCH  73  74
ATOM     74  NE  ARG A   8      23.726  62.606  19.970  0.00  0.00    -0.265 N 
ATOM     75  CZ  ARG A   8      24.697  63.511  19.962  0.00  0.00    +0.342 C 
ATOM     76  NH2 ARG A   8      25.834  63.400  20.652  0.00  0.00    -0.292 N 
ATOM     77 HH21 ARG A   8      26.003  62.562  21.245  0.00  0.00    +0.255 HD
ATOM     78 HH22 ARG A   8      26.551  64.151  20.597  0.00  0.00    +0.255 HD
ATOM     79  NH1 ARG A   8      24.546  64.611  19.211  0.00  0.00    -0.292 N 
ATOM     80 HH11 ARG A   8      25.294  65.333  19.190  0.00  0.00    +0.255 HD
ATOM     81 HH12 ARG A   8      23.681  64.742  18.649  0.00  0.00    +0.255 HD
ATOM     82  HE  ARG A   8      22.895  62.791  19.373  0.00  0.00    +0.259 HD
ENDBRANCH  73  74
ENDBRANCH  72  73
ENDBRANCH  71  72
ENDBRANCH  57  71
ENDBRANCH  55  57
ENDBRANCH  52  53
ENDBRANCH  49  52
ENDBRANCH  47  48
BRANCH  47  83
ATOM     83  CB  ILE A   6      17.110  61.588  28.808  0.00  0.00    +0.027 C 
ATOM     84  CG2 ILE A   6      18.568  61.713  29.232  0.00  0.00    +0.002 C 
BRANCH  83  85
ATOM     85  CG1 ILE A   6      16.149  61.671  29.983  0.00  0.00    +0.002 C 
ATOM     86  CD1 ILE A   6      16.070  63.050  30.588  0.00  0.00    +0.000 C 
ENDBRANCH  83  85
ENDBRANCH  47  83
ENDBRANCH   2  47
TORSDOF 32
REMARK  Name = ../refined-set-2016/3bvb/3bvb_pocket.pdb
REMARK  230 active torsions:
REMARK  status: ('A' for Active; 'I' for Inactive)
REMARK    1  A    between atoms: _1  and  _3
REMARK    2  A    between atoms: _3  and  _4
REMARK    3  A    between atoms: _3  and  _6
REMARK    4  A    between atoms: _6  and  _7
REMARK    5  A    between atoms: _7  and  _8
REMARK    6  A    between atoms: _8  and  _9
REMARK    7  A    between atoms: _18  and  _20
REMARK    8  A    between atoms: _20  and  _21
REMARK    9  A    between atoms: _20  and  _23
REMARK   10  A    between atoms: _23  and  _24
REMARK   11  A    between atoms: _27  and  _29
REMARK   12  A    between atoms: _29  and  _30
REMARK   13  A    between atoms: _29  and  _32
REMARK   14  A    between atoms: _32  and  _33
REMARK   15  A    between atoms: _36  and  _38
REMARK   16  A    between atoms: _38  and  _39
REMARK   17  A    between atoms: _38  and  _41
REMARK   18  A    between atoms: _41  and  _42
REMARK   19  A    between atoms: _47  and  _49
REMARK   20  A    between atoms: _49  and  _50
REMARK   21  A    between atoms: _49  and  _52
REMARK   22  A    between atoms: _52  and  _53
REMARK   23  A    between atoms: _56  and  _58
REMARK   24  A    between atoms: _58  and  _59
REMARK   25  A    between atoms: _61  and  _63
REMARK   26  A    between atoms: _63  and  _64
REMARK   27  A    between atoms: _67  and  _69
REMARK   28  A    between atoms: _69  and  _70
REMARK   29  A    between atoms: _69  and  _72
REMARK   30  A    between atoms: _72  and  _73
REMARK   31  A    between atoms: _76  and  _78
REMARK   32  A    between atoms: _78  and  _79
REMARK   33  A    between atoms: _78  and  _81
REMARK   34  A    between atoms: _81  and  _82
REMARK   35  A    between atoms: _85  and  _87
REMARK   36  A    between atoms: _87  and  _88
REMARK   37  A    between atoms: _87  and  _90
REMARK   38  A    between atoms: _90  and  _91
REMARK   39  A    between atoms: _94  and  _96
REMARK   40  A    between atoms: _96  and  _97
REMARK   41  A    between atoms: _96  and  _99
REMARK   42  A    between atoms: _102  and  _104
REMARK   43  A    between atoms: _104  and  _105
REMARK   44  A    between atoms: _104  and  _107
REMARK   45  A    between atoms: _107  and  _108
REMARK   46  A    between atoms: _108  and  _109
REMARK   47  A    between atoms: _109  and  _110
REMARK   48  A    between atoms: _110  and  _111
REMARK   49  A    between atoms: _115  and  _117
REMARK   50  A    between atoms: _117  and  _118
REMARK   51  A    between atoms: _117  and  _120
REMARK   52  A    between atoms: _120  and  _121
REMARK   53  A    between atoms: _121  and  _122
REMARK   54  A    between atoms: _124  and  _126
REMARK   55  A    between atoms: _126  and  _127
REMARK   56  A    between atoms: _126  and  _129
REMARK   57  A    between atoms: _129  and  _130
REMARK   58  A    between atoms: _133  and  _135
REMARK   59  A    between atoms: _135  and  _136
REMARK   60  A    between atoms: _138  and  _140
REMARK   61  A    between atoms: _140  and  _141
REMARK   62  A    between atoms: _143  and  _145
REMARK   63  A    between atoms: _145  and  _146
REMARK   64  A    between atoms: _145  and  _148
REMARK   65  A    between atoms: _148  and  _149
REMARK   66  A    between atoms: _152  and  _154
REMARK   67  A    between atoms: _154  and  _155
REMARK   68  A    between atoms: _157  and  _159
REMARK   69  A    between atoms: _159  and  _160
REMARK   70  A    between atoms: _162  and  _164
REMARK   71  A    between atoms: _164  and  _165
REMARK   72  A    between atoms: _164  and  _167
REMARK   73  A    between atoms: _167  and  _168
REMARK   74  A    between atoms: _174  and  _176
REMARK   75  A    between atoms: _176  and  _177
REMARK   76  A    between atoms: _176  and  _179
REMARK   77  A    between atoms: _179  and  _180
REMARK   78  A    between atoms: _183  and  _185
REMARK   79  A    between atoms: _185  and  _186
REMARK   80  A    between atoms: _185  and  _188
REMARK   81  A    between atoms: _191  and  _193
REMARK   82  A    between atoms: _193  and  _194
REMARK   83  A    between atoms: _193  and  _196
REMARK   84  A    between atoms: _196  and  _197
REMARK   85  A    between atoms: _200  and  _202
REMARK   86  A    between atoms: _202  and  _203
REMARK   87  A    between atoms: _202  and  _205
REMARK   88  A    between atoms: _205  and  _206
REMARK   89  A    between atoms: _210  and  _211
REMARK   90  A    between atoms: _216  and  _218
REMARK   91  A    between atoms: _218  and  _219
REMARK   92  A    between atoms: _218  and  _221
REMARK   93  A    between atoms: _224  and  _226
REMARK   94  A    between atoms: _226  and  _227
REMARK   95  A    between atoms: _226  and  _229
REMARK   96  A    between atoms: _229  and  _230
REMARK   97  A    between atoms: _235  and  _237
REMARK   98  A    between atoms: _237  and  _238
REMARK   99  A    between atoms: _237  and  _240
REMARK  100  A    between atoms: _240  and  _241
REMARK  101  A    between atoms: _240  and  _242
REMARK  102  A    between atoms: _244  and  _246
REMARK  103  A    between atoms: _246  and  _247
REMARK  104  A    between atoms: _246  and  _249
REMARK  105  A    between atoms: _249  and  _250
REMARK  106  A    between atoms: _253  and  _255
REMARK  107  A    between atoms: _255  and  _256
REMARK  108  A    between atoms: _258  and  _260
REMARK  109  A    between atoms: _260  and  _261
REMARK  110  A    between atoms: _260  and  _263
REMARK  111  A    between atoms: _263  and  _264
REMARK  112  A    between atoms: _264  and  _265
REMARK  113  A    between atoms: _265  and  _266
REMARK  114  A    between atoms: _275  and  _277
REMARK  115  A    between atoms: _277  and  _278
REMARK  116  A    between atoms: _277  and  _280
REMARK  117  A    between atoms: _280  and  _281
REMARK  118  A    between atoms: _286  and  _288
REMARK  119  A    between atoms: _288  and  _289
REMARK  120  A    between atoms: _288  and  _291
REMARK  121  A    between atoms: _291  and  _292
REMARK  122  A    between atoms: _292  and  _293
REMARK  123  A    between atoms: _293  and  _294
REMARK  124  A    between atoms: _303  and  _305
REMARK  125  A    between atoms: _305  and  _306
REMARK  126  A    between atoms: _305  and  _308
REMARK  127  A    between atoms: _308  and  _309
REMARK  128  A    between atoms: _312  and  _314
REMARK  129  A    between atoms: _314  and  _315
REMARK  130  A    between atoms: _314  and  _317
REMARK  131  A    between atoms: _317  and  _318
REMARK  132  A    between atoms: _321  and  _323
REMARK  133  A    between atoms: _323  and  _324
REMARK  134  A    between atoms: _323  and  _326
REMARK  135  A    between atoms: _326  and  _327
REMARK  136  A    between atoms: _332  and  _334
REMARK  137  A    between atoms: _334  and  _335
REMARK  138  A    between atoms: _334  and  _337
REMARK  139  A    between atoms: _337  and  _338
REMARK  140  A    between atoms: _341  and  _343
REMARK  141  A    between atoms: _343  and  _344
REMARK  142  A    between atoms: _346  and  _348
REMARK  143  A    between atoms: _348  and  _349
REMARK  144  A    between atoms: _352  and  _354
REMARK  145  A    between atoms: _354  and  _355
REMARK  146  A    between atoms: _354  and  _357
REMARK  147  A    between atoms: _357  and  _358
REMARK  148  A    between atoms: _361  and  _363
REMARK  149  A    between atoms: _363  and  _364
REMARK  150  A    between atoms: _363  and  _366
REMARK  151  A    between atoms: _366  and  _367
REMARK  152  A    between atoms: _370  and  _372
REMARK  153  A    between atoms: _372  and  _373
REMARK  154  A    between atoms: _372  and  _375
REMARK  155  A    between atoms: _375  and  _376
REMARK  156  A    between atoms: _379  and  _381
REMARK  157  A    between atoms: _381  and  _382
REMARK  158  A    between atoms: _381  and  _384
REMARK  159  A    between atoms: _387  and  _389
REMARK  160  A    between atoms: _389  and  _390
REMARK  161  A    between atoms: _389  and  _392
REMARK  162  A    between atoms: _392  and  _393
REMARK  163  A    between atoms: _393  and  _394
REMARK  164  A    between atoms: _394  and  _395
REMARK  165  A    between atoms: _395  and  _396
REMARK  166  A    between atoms: _400  and  _402
REMARK  167  A    between atoms: _402  and  _403
REMARK  168  A    between atoms: _402  and  _405
REMARK  169  A    between atoms: _405  and  _406
REMARK  170  A    between atoms: _406  and  _407
REMARK  171  A    between atoms: _409  and  _411
REMARK  172  A    between atoms: _411  and  _412
REMARK  173  A    between atoms: _411  and  _414
REMARK  174  A    between atoms: _414  and  _415
REMARK  175  A    between atoms: _418  and  _420
REMARK  176  A    between atoms: _420  and  _421
REMARK  177  A    between atoms: _423  and  _425
REMARK  178  A    between atoms: _425  and  _426
REMARK  179  A    between atoms: _428  and  _430
REMARK  180  A    between atoms: _430  and  _431
REMARK  181  A    between atoms: _430  and  _433
REMARK  182  A    between atoms: _433  and  _434
REMARK  183  A    between atoms: _437  and  _439
REMARK  184  A    between atoms: _439  and  _440
REMARK  185  A    between atoms: _442  and  _444
REMARK  186  A    between atoms: _444  and  _445
REMARK  187  A    between atoms: _447  and  _449
REMARK  188  A    between atoms: _449  and  _450
REMARK  189  A    between atoms: _449  and  _452
REMARK  190  A    between atoms: _452  and  _453
REMARK  191  A    between atoms: _459  and  _461
REMARK  192  A    between atoms: _461  and  _462
REMARK  193  A    between atoms: _461  and  _464
REMARK  194  A    between atoms: _464  and  _465
REMARK  195  A    between atoms: _468  and  _470
REMARK  196  A    between atoms: _470  and  _471
REMARK  197  A    between atoms: _470  and  _473
REMARK  198  A    between atoms: _473  and  _474
REMARK  199  A    between atoms: _477  and  _479
REMARK  200  A    between atoms: _479  and  _480
REMARK  201  A    between atoms: _479  and  _482
REMARK  202  A    between atoms: _482  and  _483
REMARK  203  A    between atoms: _487  and  _488
REMARK  204  A    between atoms: _493  and  _495
REMARK  205  A    between atoms: _495  and  _496
REMARK  206  A    between atoms: _495  and  _498
REMARK  207  A    between atoms: _501  and  _503
REMARK  208  A    between atoms: _503  and  _504
REMARK  209  A    between atoms: _503  and  _506
REMARK  210  A    between atoms: _506  and  _507
REMARK  211  A    between atoms: _512  and  _514
REMARK  212  A    between atoms: _514  and  _515
REMARK  213  A    between atoms: _514  and  _517
REMARK  214  A    between atoms: _517  and  _518
REMARK  215  A    between atoms: _521  and  _523
REMARK  216  A    between atoms: _523  and  _524
REMARK  217  A    between atoms: _523  and  _526
REMARK  218  A    between atoms: _526  and  _527
REMARK  219  A    between atoms: _530  and  _532
REMARK  220  A    between atoms: _532  and  _533
REMARK  221  A    between atoms: _535  and  _537
REMARK  222  A    between atoms: _537  and  _538
REMARK  223  A    between atoms: _537  and  _540
REMARK  224  A    between atoms: _540  and  _541
REMARK  225  A    between atoms: _541  and  _542
REMARK  226  A    between atoms: _542  and  _543
REMARK  227  A    between atoms: _552  and  _554
REMARK  228  A    between atoms: _554  and  _555
REMARK  229  A    between atoms: _554  and  _557
REMARK  230  A    between atoms: _557  and  _558
REMARK                            x       y       z     vdW  Elec       q    Type
REMARK                         _______ _______ _______ _____ _____    ______ ____
ROOT
ATOM      1  O   HOH     1      10.790  55.164  21.667  0.00  0.00    +0.000 OA
ENDROOT
TORSDOF 0
REMARK  Name = ../refined-set-2016/3bvb/3bvb_pocket.pdb
REMARK  230 active torsions:
REMARK  status: ('A' for Active; 'I' for Inactive)
REMARK    1  A    between atoms: _1  and  _3
REMARK    2  A    between atoms: _3  and  _4
REMARK    3  A    between atoms: _3  and  _6
REMARK    4  A    between atoms: _6  and  _7
REMARK    5  A    between atoms: _7  and  _8
REMARK    6  A    between atoms: _8  and  _9
REMARK    7  A    between atoms: _18  and  _20
REMARK    8  A    between atoms: _20  and  _21
REMARK    9  A    between atoms: _20  and  _23
REMARK   10  A    between atoms: _23  and  _24
REMARK   11  A    between atoms: _27  and  _29
REMARK   12  A    between atoms: _29  and  _30
REMARK   13  A    between atoms: _29  and  _32
REMARK   14  A    between atoms: _32  and  _33
REMARK   15  A    between atoms: _36  and  _38
REMARK   16  A    between atoms: _38  and  _39
REMARK   17  A    between atoms: _38  and  _41
REMARK   18  A    between atoms: _41  and  _42
REMARK   19  A    between atoms: _47  and  _49
REMARK   20  A    between atoms: _49  and  _50
REMARK   21  A    between atoms: _49  and  _52
REMARK   22  A    between atoms: _52  and  _53
REMARK   23  A    between atoms: _56  and  _58
REMARK   24  A    between atoms: _58  and  _59
REMARK   25  A    between atoms: _61  and  _63
REMARK   26  A    between atoms: _63  and  _64
REMARK   27  A    between atoms: _67  and  _69
REMARK   28  A    between atoms: _69  and  _70
REMARK   29  A    between atoms: _69  and  _72
REMARK   30  A    between atoms: _72  and  _73
REMARK   31  A    between atoms: _76  and  _78
REMARK   32  A    between atoms: _78  and  _79
REMARK   33  A    between atoms: _78  and  _81
REMARK   34  A    between atoms: _81  and  _82
REMARK   35  A    between atoms: _85  and  _87
REMARK   36  A    between atoms: _87  and  _88
REMARK   37  A    between atoms: _87  and  _90
REMARK   38  A    between atoms: _90  and  _91
REMARK   39  A    between atoms: _94  and  _96
REMARK   40  A    between atoms: _96  and  _97
REMARK   41  A    between atoms: _96  and  _99
REMARK   42  A    between atoms: _102  and  _104
REMARK   43  A    between atoms: _104  and  _105
REMARK   44  A    between atoms: _104  and  _107
REMARK   45  A    between atoms: _107  and  _108
REMARK   46  A    between atoms: _108  and  _109
REMARK   47  A    between atoms: _109  and  _110
REMARK   48  A    between atoms: _110  and  _111
REMARK   49  A    between atoms: _115  and  _117
REMARK   50  A    between atoms: _117  and  _118
REMARK   51  A    between atoms: _117  and  _120
REMARK   52  A    between atoms: _120  and  _121
REMARK   53  A    between atoms: _121  and  _122
REMARK   54  A    between atoms: _124  and  _126
REMARK   55  A    between atoms: _126  and  _127
REMARK   56  A    between atoms: _126  and  _129
REMARK   57  A    between atoms: _129  and  _130
REMARK   58  A    between atoms: _133  and  _135
REMARK   59  A    between atoms: _135  and  _136
REMARK   60  A    between atoms: _138  and  _140
REMARK   61  A    between atoms: _140  and  _141
REMARK   62  A    between atoms: _143  and  _145
REMARK   63  A    between atoms: _145  and  _146
REMARK   64  A    between atoms: _145  and  _148
REMARK   65  A    between atoms: _148  and  _149
REMARK   66  A    between atoms: _152  and  _154
REMARK   67  A    between atoms: _154  and  _155
REMARK   68  A    between atoms: _157  and  _159
REMARK   69  A    between atoms: _159  and  _160
REMARK   70  A    between atoms: _162  and  _164
REMARK   71  A    between atoms: _164  and  _165
REMARK   72  A    between atoms: _164  and  _167
REMARK   73  A    between atoms: _167  and  _168
REMARK   74  A    between atoms: _174  and  _176
REMARK   75  A    between atoms: _176  and  _177
REMARK   76  A    between atoms: _176  and  _179
REMARK   77  A    between atoms: _179  and  _180
REMARK   78  A    between atoms: _183  and  _185
REMARK   79  A    between atoms: _185  and  _186
REMARK   80  A    between atoms: _185  and  _188
REMARK   81  A    between atoms: _191  and  _193
REMARK   82  A    between atoms: _193  and  _194
REMARK   83  A    between atoms: _193  and  _196
REMARK   84  A    between atoms: _196  and  _197
REMARK   85  A    between atoms: _200  and  _202
REMARK   86  A    between atoms: _202  and  _203
REMARK   87  A    between atoms: _202  and  _205
REMARK   88  A    between atoms: _205  and  _206
REMARK   89  A    between atoms: _210  and  _211
REMARK   90  A    between atoms: _216  and  _218
REMARK   91  A    between atoms: _218  and  _219
REMARK   92  A    between atoms: _218  and  _221
REMARK   93  A    between atoms: _224  and  _226
REMARK   94  A    between atoms: _226  and  _227
REMARK   95  A    between atoms: _226  and  _229
REMARK   96  A    between atoms: _229  and  _230
REMARK   97  A    between atoms: _235  and  _237
REMARK   98  A    between atoms: _237  and  _238
REMARK   99  A    between atoms: _237  and  _240
REMARK  100  A    between atoms: _240  and  _241
REMARK  101  A    between atoms: _240  and  _242
REMARK  102  A    between atoms: _244  and  _246
REMARK  103  A    between atoms: _246  and  _247
REMARK  104  A    between atoms: _246  and  _249
REMARK  105  A    between atoms: _249  and  _250
REMARK  106  A    between atoms: _253  and  _255
REMARK  107  A    between atoms: _255  and  _256
REMARK  108  A    between atoms: _258  and  _260
REMARK  109  A    between atoms: _260  and  _261
REMARK  110  A    between atoms: _260  and  _263
REMARK  111  A    between atoms: _263  and  _264
REMARK  112  A    between atoms: _264  and  _265
REMARK  113  A    between atoms: _265  and  _266
REMARK  114  A    between atoms: _275  and  _277
REMARK  115  A    between atoms: _277  and  _278
REMARK  116  A    between atoms: _277  and  _280
REMARK  117  A    between atoms: _280  and  _281
REMARK  118  A    between atoms: _286  and  _288
REMARK  119  A    between atoms: _288  and  _289
REMARK  120  A    between atoms: _288  and  _291
REMARK  121  A    between atoms: _291  and  _292
REMARK  122  A    between atoms: _292  and  _293
REMARK  123  A    between atoms: _293  and  _294
REMARK  124  A    between atoms: _303  and  _305
REMARK  125  A    between atoms: _305  and  _306
REMARK  126  A    between atoms: _305  and  _308
REMARK  127  A    between atoms: _308  and  _309
REMARK  128  A    between atoms: _312  and  _314
REMARK  129  A    between atoms: _314  and  _315
REMARK  130  A    between atoms: _314  and  _317
REMARK  131  A    between atoms: _317  and  _318
REMARK  132  A    between atoms: _321  and  _323
REMARK  133  A    between atoms: _323  and  _324
REMARK  134  A    between atoms: _323  and  _326
REMARK  135  A    between atoms: _326  and  _327
REMARK  136  A    between atoms: _332  and  _334
REMARK  137  A    between atoms: _334  and  _335
REMARK  138  A    between atoms: _334  and  _337
REMARK  139  A    between atoms: _337  and  _338
REMARK  140  A    between atoms: _341  and  _343
REMARK  141  A    between atoms: _343  and  _344
REMARK  142  A    between atoms: _346  and  _348
REMARK  143  A    between atoms: _348  and  _349
REMARK  144  A    between atoms: _352  and  _354
REMARK  145  A    between atoms: _354  and  _355
REMARK  146  A    between atoms: _354  and  _357
REMARK  147  A    between atoms: _357  and  _358
REMARK  148  A    between atoms: _361  and  _363
REMARK  149  A    between atoms: _363  and  _364
REMARK  150  A    between atoms: _363  and  _366
REMARK  151  A    between atoms: _366  and  _367
REMARK  152  A    between atoms: _370  and  _372
REMARK  153  A    between atoms: _372  and  _373
REMARK  154  A    between atoms: _372  and  _375
REMARK  155  A    between atoms: _375  and  _376
REMARK  156  A    between atoms: _379  and  _381
REMARK  157  A    between atoms: _381  and  _382
REMARK  158  A    between atoms: _381  and  _384
REMARK  159  A    between atoms: _387  and  _389
REMARK  160  A    between atoms: _389  and  _390
REMARK  161  A    between atoms: _389  and  _392
REMARK  162  A    between atoms: _392  and  _393
REMARK  163  A    between atoms: _393  and  _394
REMARK  164  A    between atoms: _394  and  _395
REMARK  165  A    between atoms: _395  and  _396
REMARK  166  A    between atoms: _400  and  _402
REMARK  167  A    between atoms: _402  and  _403
REMARK  168  A    between atoms: _402  and  _405
REMARK  169  A    between atoms: _405  and  _406
REMARK  170  A    between atoms: _406  and  _407
REMARK  171  A    between atoms: _409  and  _411
REMARK  172  A    between atoms: _411  and  _412
REMARK  173  A    between atoms: _411  and  _414
REMARK  174  A    between atoms: _414  and  _415
REMARK  175  A    between atoms: _418  and  _420
REMARK  176  A    between atoms: _420  and  _421
REMARK  177  A    between atoms: _423  and  _425
REMARK  178  A    between atoms: _425  and  _426
REMARK  179  A    between atoms: _428  and  _430
REMARK  180  A    between atoms: _430  and  _431
REMARK  181  A    between atoms: _430  and  _433
REMARK  182  A    between atoms: _433  and  _434
REMARK  183  A    between atoms: _437  and  _439
REMARK  184  A    between atoms: _439  and  _440
REMARK  185  A    between atoms: _442  and  _444
REMARK  186  A    between atoms: _444  and  _445
REMARK  187  A    between atoms: _447  and  _449
REMARK  188  A    between atoms: _449  and  _450
REMARK  189  A    between atoms: _449  and  _452
REMARK  190  A    between atoms: _452  and  _453
REMARK  191  A    between atoms: _459  and  _461
REMARK  192  A    between atoms: _461  and  _462
REMARK  193  A    between atoms: _461  and  _464
REMARK  194  A    between atoms: _464  and  _465
REMARK  195  A    between atoms: _468  and  _470
REMARK  196  A    between atoms: _470  and  _471
REMARK  197  A    between atoms: _470  and  _473
REMARK  198  A    between atoms: _473  and  _474
REMARK  199  A    between atoms: _477  and  _479
REMARK  200  A    between atoms: _479  and  _480
REMARK  201  A    between atoms: _479  and  _482
REMARK  202  A    between atoms: _482  and  _483
REMARK  203  A    between atoms: _487  and  _488
REMARK  204  A    between atoms: _493  and  _495
REMARK  205  A    between atoms: _495  and  _496
REMARK  206  A    between atoms: _495  and  _498
REMARK  207  A    between atoms: _501  and  _503
REMARK  208  A    between atoms: _503  and  _504
REMARK  209  A    between atoms: _503  and  _506
REMARK  210  A    between atoms: _506  and  _507
REMARK  211  A    between atoms: _512  and  _514
REMARK  212  A    between atoms: _514  and  _515
REMARK  213  A    between atoms: _514  and  _517
REMARK  214  A    between atoms: _517  and  _518
REMARK  215  A    between atoms: _521  and  _523
REMARK  216  A    between atoms: _523  and  _524
REMARK  217  A    between atoms: _523  and  _526
REMARK  218  A    between atoms: _526  and  _527
REMARK  219  A    between atoms: _530  and  _532
REMARK  220  A    between atoms: _532  and  _533
REMARK  221  A    between atoms: _535  and  _537
REMARK  222  A    between atoms: _537  and  _538
REMARK  223  A    between atoms: _537  and  _540
REMARK  224  A    between atoms: _540  and  _541
REMARK  225  A    between atoms: _541  and  _542
REMARK  226  A    between atoms: _542  and  _543
REMARK  227  A    between atoms: _552  and  _554
REMARK  228  A    between atoms: _554  and  _555
REMARK  229  A    between atoms: _554  and  _557
REMARK  230  A    between atoms: _557  and  _558
REMARK                            x       y       z     vdW  Elec       q    Type
REMARK                         _______ _______ _______ _____ _____    ______ ____
ROOT
ATOM      1  O   HOH     1       8.869  57.160  21.402  0.00  0.00    +0.000 OA
ENDROOT
TORSDOF 0
REMARK  Name = ../refined-set-2016/3bvb/3bvb_pocket.pdb
REMARK  230 active torsions:
REMARK  status: ('A' for Active; 'I' for Inactive)
REMARK    1  A    between atoms: _1  and  _3
REMARK    2  A    between atoms: _3  and  _4
REMARK    3  A    between atoms: _3  and  _6
REMARK    4  A    between atoms: _6  and  _7
REMARK    5  A    between atoms: _7  and  _8
REMARK    6  A    between atoms: _8  and  _9
REMARK    7  A    between atoms: _18  and  _20
REMARK    8  A    between atoms: _20  and  _21
REMARK    9  A    between atoms: _20  and  _23
REMARK   10  A    between atoms: _23  and  _24
REMARK   11  A    between atoms: _27  and  _29
REMARK   12  A    between atoms: _29  and  _30
REMARK   13  A    between atoms: _29  and  _32
REMARK   14  A    between atoms: _32  and  _33
REMARK   15  A    between atoms: _36  and  _38
REMARK   16  A    between atoms: _38  and  _39
REMARK   17  A    between atoms: _38  and  _41
REMARK   18  A    between atoms: _41  and  _42
REMARK   19  A    between atoms: _47  and  _49
REMARK   20  A    between atoms: _49  and  _50
REMARK   21  A    between atoms: _49  and  _52
REMARK   22  A    between atoms: _52  and  _53
REMARK   23  A    between atoms: _56  and  _58
REMARK   24  A    between atoms: _58  and  _59
REMARK   25  A    between atoms: _61  and  _63
REMARK   26  A    between atoms: _63  and  _64
REMARK   27  A    between atoms: _67  and  _69
REMARK   28  A    between atoms: _69  and  _70
REMARK   29  A    between atoms: _69  and  _72
REMARK   30  A    between atoms: _72  and  _73
REMARK   31  A    between atoms: _76  and  _78
REMARK   32  A    between atoms: _78  and  _79
REMARK   33  A    between atoms: _78  and  _81
REMARK   34  A    between atoms: _81  and  _82
REMARK   35  A    between atoms: _85  and  _87
REMARK   36  A    between atoms: _87  and  _88
REMARK   37  A    between atoms: _87  and  _90
REMARK   38  A    between atoms: _90  and  _91
REMARK   39  A    between atoms: _94  and  _96
REMARK   40  A    between atoms: _96  and  _97
REMARK   41  A    between atoms: _96  and  _99
REMARK   42  A    between atoms: _102  and  _104
REMARK   43  A    between atoms: _104  and  _105
REMARK   44  A    between atoms: _104  and  _107
REMARK   45  A    between atoms: _107  and  _108
REMARK   46  A    between atoms: _108  and  _109
REMARK   47  A    between atoms: _109  and  _110
REMARK   48  A    between atoms: _110  and  _111
REMARK   49  A    between atoms: _115  and  _117
REMARK   50  A    between atoms: _117  and  _118
REMARK   51  A    between atoms: _117  and  _120
REMARK   52  A    between atoms: _120  and  _121
REMARK   53  A    between atoms: _121  and  _122
REMARK   54  A    between atoms: _124  and  _126
REMARK   55  A    between atoms: _126  and  _127
REMARK   56  A    between atoms: _126  and  _129
REMARK   57  A    between atoms: _129  and  _130
REMARK   58  A    between atoms: _133  and  _135
REMARK   59  A    between atoms: _135  and  _136
REMARK   60  A    between atoms: _138  and  _140
REMARK   61  A    between atoms: _140  and  _141
REMARK   62  A    between atoms: _143  and  _145
REMARK   63  A    between atoms: _145  and  _146
REMARK   64  A    between atoms: _145  and  _148
REMARK   65  A    between atoms: _148  and  _149
REMARK   66  A    between atoms: _152  and  _154
REMARK   67  A    between atoms: _154  and  _155
REMARK   68  A    between atoms: _157  and  _159
REMARK   69  A    between atoms: _159  and  _160
REMARK   70  A    between atoms: _162  and  _164
REMARK   71  A    between atoms: _164  and  _165
REMARK   72  A    between atoms: _164  and  _167
REMARK   73  A    between atoms: _167  and  _168
REMARK   74  A    between atoms: _174  and  _176
REMARK   75  A    between atoms: _176  and  _177
REMARK   76  A    between atoms: _176  and  _179
REMARK   77  A    between atoms: _179  and  _180
REMARK   78  A    between atoms: _183  and  _185
REMARK   79  A    between atoms: _185  and  _186
REMARK   80  A    between atoms: _185  and  _188
REMARK   81  A    between atoms: _191  and  _193
REMARK   82  A    between atoms: _193  and  _194
REMARK   83  A    between atoms: _193  and  _196
REMARK   84  A    between atoms: _196  and  _197
REMARK   85  A    between atoms: _200  and  _202
REMARK   86  A    between atoms: _202  and  _203
REMARK   87  A    between atoms: _202  and  _205
REMARK   88  A    between atoms: _205  and  _206
REMARK   89  A    between atoms: _210  and  _211
REMARK   90  A    between atoms: _216  and  _218
REMARK   91  A    between atoms: _218  and  _219
REMARK   92  A    between atoms: _218  and  _221
REMARK   93  A    between atoms: _224  and  _226
REMARK   94  A    between atoms: _226  and  _227
REMARK   95  A    between atoms: _226  and  _229
REMARK   96  A    between atoms: _229  and  _230
REMARK   97  A    between atoms: _235  and  _237
REMARK   98  A    between atoms: _237  and  _238
REMARK   99  A    between atoms: _237  and  _240
REMARK  100  A    between atoms: _240  and  _241
REMARK  101  A    between atoms: _240  and  _242
REMARK  102  A    between atoms: _244  and  _246
REMARK  103  A    between atoms: _246  and  _247
REMARK  104  A    between atoms: _246  and  _249
REMARK  105  A    between atoms: _249  and  _250
REMARK  106  A    between atoms: _253  and  _255
REMARK  107  A    between atoms: _255  and  _256
REMARK  108  A    between atoms: _258  and  _260
REMARK  109  A    between atoms: _260  and  _261
REMARK  110  A    between atoms: _260  and  _263
REMARK  111  A    between atoms: _263  and  _264
REMARK  112  A    between atoms: _264  and  _265
REMARK  113  A    between atoms: _265  and  _266
REMARK  114  A    between atoms: _275  and  _277
REMARK  115  A    between atoms: _277  and  _278
REMARK  116  A    between atoms: _277  and  _280
REMARK  117  A    between atoms: _280  and  _281
REMARK  118  A    between atoms: _286  and  _288
REMARK  119  A    between atoms: _288  and  _289
REMARK  120  A    between atoms: _288  and  _291
REMARK  121  A    between atoms: _291  and  _292
REMARK  122  A    between atoms: _292  and  _293
REMARK  123  A    between atoms: _293  and  _294
REMARK  124  A    between atoms: _303  and  _305
REMARK  125  A    between atoms: _305  and  _306
REMARK  126  A    between atoms: _305  and  _308
REMARK  127  A    between atoms: _308  and  _309
REMARK  128  A    between atoms: _312  and  _314
REMARK  129  A    between atoms: _314  and  _315
REMARK  130  A    between atoms: _314  and  _317
REMARK  131  A    between atoms: _317  and  _318
REMARK  132  A    between atoms: _321  and  _323
REMARK  133  A    between atoms: _323  and  _324
REMARK  134  A    between atoms: _323  and  _326
REMARK  135  A    between atoms: _326  and  _327
REMARK  136  A    between atoms: _332  and  _334
REMARK  137  A    between atoms: _334  and  _335
REMARK  138  A    between atoms: _334  and  _337
REMARK  139  A    between atoms: _337  and  _338
REMARK  140  A    between atoms: _341  and  _343
REMARK  141  A    between atoms: _343  and  _344
REMARK  142  A    between atoms: _346  and  _348
REMARK  143  A    between atoms: _348  and  _349
REMARK  144  A    between atoms: _352  and  _354
REMARK  145  A    between atoms: _354  and  _355
REMARK  146  A    between atoms: _354  and  _357
REMARK  147  A    between atoms: _357  and  _358
REMARK  148  A    between atoms: _361  and  _363
REMARK  149  A    between atoms: _363  and  _364
REMARK  150  A    between atoms: _363  and  _366
REMARK  151  A    between atoms: _366  and  _367
REMARK  152  A    between atoms: _370  and  _372
REMARK  153  A    between atoms: _372  and  _373
REMARK  154  A    between atoms: _372  and  _375
REMARK  155  A    between atoms: _375  and  _376
REMARK  156  A    between atoms: _379  and  _381
REMARK  157  A    between atoms: _381  and  _382
REMARK  158  A    between atoms: _381  and  _384
REMARK  159  A    between atoms: _387  and  _389
REMARK  160  A    between atoms: _389  and  _390
REMARK  161  A    between atoms: _389  and  _392
REMARK  162  A    between atoms: _392  and  _393
REMARK  163  A    between atoms: _393  and  _394
REMARK  164  A    between atoms: _394  and  _395
REMARK  165  A    between atoms: _395  and  _396
REMARK  166  A    between atoms: _400  and  _402
REMARK  167  A    between atoms: _402  and  _403
REMARK  168  A    between atoms: _402  and  _405
REMARK  169  A    between atoms: _405  and  _406
REMARK  170  A    between atoms: _406  and  _407
REMARK  171  A    between atoms: _409  and  _411
REMARK  172  A    between atoms: _411  and  _412
REMARK  173  A    between atoms: _411  and  _414
REMARK  174  A    between atoms: _414  and  _415
REMARK  175  A    between atoms: _418  and  _420
REMARK  176  A    between atoms: _420  and  _421
REMARK  177  A    between atoms: _423  and  _425
REMARK  178  A    between atoms: _425  and  _426
REMARK  179  A    between atoms: _428  and  _430
REMARK  180  A    between atoms: _430  and  _431
REMARK  181  A    between atoms: _430  and  _433
REMARK  182  A    between atoms: _433  and  _434
REMARK  183  A    between atoms: _437  and  _439
REMARK  184  A    between atoms: _439  and  _440
REMARK  185  A    between atoms: _442  and  _444
REMARK  186  A    between atoms: _444  and  _445
REMARK  187  A    between atoms: _447  and  _449
REMARK  188  A    between atoms: _449  and  _450
REMARK  189  A    between atoms: _449  and  _452
REMARK  190  A    between atoms: _452  and  _453
REMARK  191  A    between atoms: _459  and  _461
REMARK  192  A    between atoms: _461  and  _462
REMARK  193  A    between atoms: _461  and  _464
REMARK  194  A    between atoms: _464  and  _465
REMARK  195  A    between atoms: _468  and  _470
REMARK  196  A    between atoms: _470  and  _471
REMARK  197  A    between atoms: _470  and  _473
REMARK  198  A    between atoms: _473  and  _474
REMARK  199  A    between atoms: _477  and  _479
REMARK  200  A    between atoms: _479  and  _480
REMARK  201  A    between atoms: _479  and  _482
REMARK  202  A    between atoms: _482  and  _483
REMARK  203  A    between atoms: _487  and  _488
REMARK  204  A    between atoms: _493  and  _495
REMARK  205  A    between atoms: _495  and  _496
REMARK  206  A    between atoms: _495  and  _498
REMARK  207  A    between atoms: _501  and  _503
REMARK  208  A    between atoms: _503  and  _504
REMARK  209  A    between atoms: _503  and  _506
REMARK  210  A    between atoms: _506  and  _507
REMARK  211  A    between atoms: _512  and  _514
REMARK  212  A    between atoms: _514  and  _515
REMARK  213  A    between atoms: _514  and  _517
REMARK  214  A    between atoms: _517  and  _518
REMARK  215  A    between atoms: _521  and  _523
REMARK  216  A    between atoms: _523  and  _524
REMARK  217  A    between atoms: _523  and  _526
REMARK  218  A    between atoms: _526  and  _527
REMARK  219  A    between atoms: _530  and  _532
REMARK  220  A    between atoms: _532  and  _533
REMARK  221  A    between atoms: _535  and  _537
REMARK  222  A    between atoms: _537  and  _538
REMARK  223  A    between atoms: _537  and  _540
REMARK  224  A    between atoms: _540  and  _541
REMARK  225  A    between atoms: _541  and  _542
REMARK  226  A    between atoms: _542  and  _543
REMARK  227  A    between atoms: _552  and  _554
REMARK  228  A    between atoms: _554  and  _555
REMARK  229  A    between atoms: _554  and  _557
REMARK  230  A    between atoms: _557  and  _558
REMARK                            x       y       z     vdW  Elec       q    Type
REMARK                         _______ _______ _______ _____ _____    ______ ____
ROOT
ATOM      1  O   HOH     1       3.400  60.268  15.937  0.00  0.00    +0.000 OA
ENDROOT
TORSDOF 0
REMARK  Name = ../refined-set-2016/3bvb/3bvb_pocket.pdb
REMARK  230 active torsions:
REMARK  status: ('A' for Active; 'I' for Inactive)
REMARK    1  A    between atoms: _1  and  _3
REMARK    2  A    between atoms: _3  and  _4
REMARK    3  A    between atoms: _3  and  _6
REMARK    4  A    between atoms: _6  and  _7
REMARK    5  A    between atoms: _7  and  _8
REMARK    6  A    between atoms: _8  and  _9
REMARK    7  A    between atoms: _18  and  _20
REMARK    8  A    between atoms: _20  and  _21
REMARK    9  A    between atoms: _20  and  _23
REMARK   10  A    between atoms: _23  and  _24
REMARK   11  A    between atoms: _27  and  _29
REMARK   12  A    between atoms: _29  and  _30
REMARK   13  A    between atoms: _29  and  _32
REMARK   14  A    between atoms: _32  and  _33
REMARK   15  A    between atoms: _36  and  _38
REMARK   16  A    between atoms: _38  and  _39
REMARK   17  A    between atoms: _38  and  _41
REMARK   18  A    between atoms: _41  and  _42
REMARK   19  A    between atoms: _47  and  _49
REMARK   20  A    between atoms: _49  and  _50
REMARK   21  A    between atoms: _49  and  _52
REMARK   22  A    between atoms: _52  and  _53
REMARK   23  A    between atoms: _56  and  _58
REMARK   24  A    between atoms: _58  and  _59
REMARK   25  A    between atoms: _61  and  _63
REMARK   26  A    between atoms: _63  and  _64
REMARK   27  A    between atoms: _67  and  _69
REMARK   28  A    between atoms: _69  and  _70
REMARK   29  A    between atoms: _69  and  _72
REMARK   30  A    between atoms: _72  and  _73
REMARK   31  A    between atoms: _76  and  _78
REMARK   32  A    between atoms: _78  and  _79
REMARK   33  A    between atoms: _78  and  _81
REMARK   34  A    between atoms: _81  and  _82
REMARK   35  A    between atoms: _85  and  _87
REMARK   36  A    between atoms: _87  and  _88
REMARK   37  A    between atoms: _87  and  _90
REMARK   38  A    between atoms: _90  and  _91
REMARK   39  A    between atoms: _94  and  _96
REMARK   40  A    between atoms: _96  and  _97
REMARK   41  A    between atoms: _96  and  _99
REMARK   42  A    between atoms: _102  and  _104
REMARK   43  A    between atoms: _104  and  _105
REMARK   44  A    between atoms: _104  and  _107
REMARK   45  A    between atoms: _107  and  _108
REMARK   46  A    between atoms: _108  and  _109
REMARK   47  A    between atoms: _109  and  _110
REMARK   48  A    between atoms: _110  and  _111
REMARK   49  A    between atoms: _115  and  _117
REMARK   50  A    between atoms: _117  and  _118
REMARK   51  A    between atoms: _117  and  _120
REMARK   52  A    between atoms: _120  and  _121
REMARK   53  A    between atoms: _121  and  _122
REMARK   54  A    between atoms: _124  and  _126
REMARK   55  A    between atoms: _126  and  _127
REMARK   56  A    between atoms: _126  and  _129
REMARK   57  A    between atoms: _129  and  _130
REMARK   58  A    between atoms: _133  and  _135
REMARK   59  A    between atoms: _135  and  _136
REMARK   60  A    between atoms: _138  and  _140
REMARK   61  A    between atoms: _140  and  _141
REMARK   62  A    between atoms: _143  and  _145
REMARK   63  A    between atoms: _145  and  _146
REMARK   64  A    between atoms: _145  and  _148
REMARK   65  A    between atoms: _148  and  _149
REMARK   66  A    between atoms: _152  and  _154
REMARK   67  A    between atoms: _154  and  _155
REMARK   68  A    between atoms: _157  and  _159
REMARK   69  A    between atoms: _159  and  _160
REMARK   70  A    between atoms: _162  and  _164
REMARK   71  A    between atoms: _164  and  _165
REMARK   72  A    between atoms: _164  and  _167
REMARK   73  A    between atoms: _167  and  _168
REMARK   74  A    between atoms: _174  and  _176
REMARK   75  A    between atoms: _176  and  _177
REMARK   76  A    between atoms: _176  and  _179
REMARK   77  A    between atoms: _179  and  _180
REMARK   78  A    between atoms: _183  and  _185
REMARK   79  A    between atoms: _185  and  _186
REMARK   80  A    between atoms: _185  and  _188
REMARK   81  A    between atoms: _191  and  _193
REMARK   82  A    between atoms: _193  and  _194
REMARK   83  A    between atoms: _193  and  _196
REMARK   84  A    between atoms: _196  and  _197
REMARK   85  A    between atoms: _200  and  _202
REMARK   86  A    between atoms: _202  and  _203
REMARK   87  A    between atoms: _202  and  _205
REMARK   88  A    between atoms: _205  and  _206
REMARK   89  A    between atoms: _210  and  _211
REMARK   90  A    between atoms: _216  and  _218
REMARK   91  A    between atoms: _218  and  _219
REMARK   92  A    between atoms: _218  and  _221
REMARK   93  A    between atoms: _224  and  _226
REMARK   94  A    between atoms: _226  and  _227
REMARK   95  A    between atoms: _226  and  _229
REMARK   96  A    between atoms: _229  and  _230
REMARK   97  A    between atoms: _235  and  _237
REMARK   98  A    between atoms: _237  and  _238
REMARK   99  A    between atoms: _237  and  _240
REMARK  100  A    between atoms: _240  and  _241
REMARK  101  A    between atoms: _240  and  _242
REMARK  102  A    between atoms: _244  and  _246
REMARK  103  A    between atoms: _246  and  _247
REMARK  104  A    between atoms: _246  and  _249
REMARK  105  A    between atoms: _249  and  _250
REMARK  106  A    between atoms: _253  and  _255
REMARK  107  A    between atoms: _255  and  _256
REMARK  108  A    between atoms: _258  and  _260
REMARK  109  A    between atoms: _260  and  _261
REMARK  110  A    between atoms: _260  and  _263
REMARK  111  A    between atoms: _263  and  _264
REMARK  112  A    between atoms: _264  and  _265
REMARK  113  A    between atoms: _265  and  _266
REMARK  114  A    between atoms: _275  and  _277
REMARK  115  A    between atoms: _277  and  _278
REMARK  116  A    between atoms: _277  and  _280
REMARK  117  A    between atoms: _280  and  _281
REMARK  118  A    between atoms: _286  and  _288
REMARK  119  A    between atoms: _288  and  _289
REMARK  120  A    between atoms: _288  and  _291
REMARK  121  A    between atoms: _291  and  _292
REMARK  122  A    between atoms: _292  and  _293
REMARK  123  A    between atoms: _293  and  _294
REMARK  124  A    between atoms: _303  and  _305
REMARK  125  A    between atoms: _305  and  _306
REMARK  126  A    between atoms: _305  and  _308
REMARK  127  A    between atoms: _308  and  _309
REMARK  128  A    between atoms: _312  and  _314
REMARK  129  A    between atoms: _314  and  _315
REMARK  130  A    between atoms: _314  and  _317
REMARK  131  A    between atoms: _317  and  _318
REMARK  132  A    between atoms: _321  and  _323
REMARK  133  A    between atoms: _323  and  _324
REMARK  134  A    between atoms: _323  and  _326
REMARK  135  A    between atoms: _326  and  _327
REMARK  136  A    between atoms: _332  and  _334
REMARK  137  A    between atoms: _334  and  _335
REMARK  138  A    between atoms: _334  and  _337
REMARK  139  A    between atoms: _337  and  _338
REMARK  140  A    between atoms: _341  and  _343
REMARK  141  A    between atoms: _343  and  _344
REMARK  142  A    between atoms: _346  and  _348
REMARK  143  A    between atoms: _348  and  _349
REMARK  144  A    between atoms: _352  and  _354
REMARK  145  A    between atoms: _354  and  _355
REMARK  146  A    between atoms: _354  and  _357
REMARK  147  A    between atoms: _357  and  _358
REMARK  148  A    between atoms: _361  and  _363
REMARK  149  A    between atoms: _363  and  _364
REMARK  150  A    between atoms: _363  and  _366
REMARK  151  A    between atoms: _366  and  _367
REMARK  152  A    between atoms: _370  and  _372
REMARK  153  A    between atoms: _372  and  _373
REMARK  154  A    between atoms: _372  and  _375
REMARK  155  A    between atoms: _375  and  _376
REMARK  156  A    between atoms: _379  and  _381
REMARK  157  A    between atoms: _381  and  _382
REMARK  158  A    between atoms: _381  and  _384
REMARK  159  A    between atoms: _387  and  _389
REMARK  160  A    between atoms: _389  and  _390
REMARK  161  A    between atoms: _389  and  _392
REMARK  162  A    between atoms: _392  and  _393
REMARK  163  A    between atoms: _393  and  _394
REMARK  164  A    between atoms: _394  and  _395
REMARK  165  A    between atoms: _395  and  _396
REMARK  166  A    between atoms: _400  and  _402
REMARK  167  A    between atoms: _402  and  _403
REMARK  168  A    between atoms: _402  and  _405
REMARK  169  A    between atoms: _405  and  _406
REMARK  170  A    between atoms: _406  and  _407
REMARK  171  A    between atoms: _409  and  _411
REMARK  172  A    between atoms: _411  and  _412
REMARK  173  A    between atoms: _411  and  _414
REMARK  174  A    between atoms: _414  and  _415
REMARK  175  A    between atoms: _418  and  _420
REMARK  176  A    between atoms: _420  and  _421
REMARK  177  A    between atoms: _423  and  _425
REMARK  178  A    between atoms: _425  and  _426
REMARK  179  A    between atoms: _428  and  _430
REMARK  180  A    between atoms: _430  and  _431
REMARK  181  A    between atoms: _430  and  _433
REMARK  182  A    between atoms: _433  and  _434
REMARK  183  A    between atoms: _437  and  _439
REMARK  184  A    between atoms: _439  and  _440
REMARK  185  A    between atoms: _442  and  _444
REMARK  186  A    between atoms: _444  and  _445
REMARK  187  A    between atoms: _447  and  _449
REMARK  188  A    between atoms: _449  and  _450
REMARK  189  A    between atoms: _449  and  _452
REMARK  190  A    between atoms: _452  and  _453
REMARK  191  A    between atoms: _459  and  _461
REMARK  192  A    between atoms: _461  and  _462
REMARK  193  A    between atoms: _461  and  _464
REMARK  194  A    between atoms: _464  and  _465
REMARK  195  A    between atoms: _468  and  _470
REMARK  196  A    between atoms: _470  and  _471
REMARK  197  A    between atoms: _470  and  _473
REMARK  198  A    between atoms: _473  and  _474
REMARK  199  A    between atoms: _477  and  _479
REMARK  200  A    between atoms: _479  and  _480
REMARK  201  A    between atoms: _479  and  _482
REMARK  202  A    between atoms: _482  and  _483
REMARK  203  A    between atoms: _487  and  _488
REMARK  204  A    between atoms: _493  and  _495
REMARK  205  A    between atoms: _495  and  _496
REMARK  206  A    between atoms: _495  and  _498
REMARK  207  A    between atoms: _501  and  _503
REMARK  208  A    between atoms: _503  and  _504
REMARK  209  A    between atoms: _503  and  _506
REMARK  210  A    between atoms: _506  and  _507
REMARK  211  A    between atoms: _512  and  _514
REMARK  212  A    between atoms: _514  and  _515
REMARK  213  A    between atoms: _514  and  _517
REMARK  214  A    between atoms: _517  and  _518
REMARK  215  A    between atoms: _521  and  _523
REMARK  216  A    between atoms: _523  and  _524
REMARK  217  A    between atoms: _523  and  _526
REMARK  218  A    between atoms: _526  and  _527
REMARK  219  A    between atoms: _530  and  _532
REMARK  220  A    between atoms: _532  and  _533
REMARK  221  A    between atoms: _535  and  _537
REMARK  222  A    between atoms: _537  and  _538
REMARK  223  A    between atoms: _537  and  _540
REMARK  224  A    between atoms: _540  and  _541
REMARK  225  A    between atoms: _541  and  _542
REMARK  226  A    between atoms: _542  and  _543
REMARK  227  A    between atoms: _552  and  _554
REMARK  228  A    between atoms: _554  and  _555
REMARK  229  A    between atoms: _554  and  _557
REMARK  230  A    between atoms: _557  and  _558
REMARK                            x       y       z     vdW  Elec       q    Type
REMARK                         _______ _______ _______ _____ _____    ______ ____
ROOT
ATOM      1  O   HOH     1       8.416  52.393  10.644  0.00  0.00    +0.000 OA
ENDROOT
TORSDOF 0
REMARK  Name = ../refined-set-2016/3bvb/3bvb_pocket.pdb
REMARK  230 active torsions:
REMARK  status: ('A' for Active; 'I' for Inactive)
REMARK    1  A    between atoms: _1  and  _3
REMARK    2  A    between atoms: _3  and  _4
REMARK    3  A    between atoms: _3  and  _6
REMARK    4  A    between atoms: _6  and  _7
REMARK    5  A    between atoms: _7  and  _8
REMARK    6  A    between atoms: _8  and  _9
REMARK    7  A    between atoms: _18  and  _20
REMARK    8  A    between atoms: _20  and  _21
REMARK    9  A    between atoms: _20  and  _23
REMARK   10  A    between atoms: _23  and  _24
REMARK   11  A    between atoms: _27  and  _29
REMARK   12  A    between atoms: _29  and  _30
REMARK   13  A    between atoms: _29  and  _32
REMARK   14  A    between atoms: _32  and  _33
REMARK   15  A    between atoms: _36  and  _38
REMARK   16  A    between atoms: _38  and  _39
REMARK   17  A    between atoms: _38  and  _41
REMARK   18  A    between atoms: _41  and  _42
REMARK   19  A    between atoms: _47  and  _49
REMARK   20  A    between atoms: _49  and  _50
REMARK   21  A    between atoms: _49  and  _52
REMARK   22  A    between atoms: _52  and  _53
REMARK   23  A    between atoms: _56  and  _58
REMARK   24  A    between atoms: _58  and  _59
REMARK   25  A    between atoms: _61  and  _63
REMARK   26  A    between atoms: _63  and  _64
REMARK   27  A    between atoms: _67  and  _69
REMARK   28  A    between atoms: _69  and  _70
REMARK   29  A    between atoms: _69  and  _72
REMARK   30  A    between atoms: _72  and  _73
REMARK   31  A    between atoms: _76  and  _78
REMARK   32  A    between atoms: _78  and  _79
REMARK   33  A    between atoms: _78  and  _81
REMARK   34  A    between atoms: _81  and  _82
REMARK   35  A    between atoms: _85  and  _87
REMARK   36  A    between atoms: _87  and  _88
REMARK   37  A    between atoms: _87  and  _90
REMARK   38  A    between atoms: _90  and  _91
REMARK   39  A    between atoms: _94  and  _96
REMARK   40  A    between atoms: _96  and  _97
REMARK   41  A    between atoms: _96  and  _99
REMARK   42  A    between atoms: _102  and  _104
REMARK   43  A    between atoms: _104  and  _105
REMARK   44  A    between atoms: _104  and  _107
REMARK   45  A    between atoms: _107  and  _108
REMARK   46  A    between atoms: _108  and  _109
REMARK   47  A    between atoms: _109  and  _110
REMARK   48  A    between atoms: _110  and  _111
REMARK   49  A    between atoms: _115  and  _117
REMARK   50  A    between atoms: _117  and  _118
REMARK   51  A    between atoms: _117  and  _120
REMARK   52  A    between atoms: _120  and  _121
REMARK   53  A    between atoms: _121  and  _122
REMARK   54  A    between atoms: _124  and  _126
REMARK   55  A    between atoms: _126  and  _127
REMARK   56  A    between atoms: _126  and  _129
REMARK   57  A    between atoms: _129  and  _130
REMARK   58  A    between atoms: _133  and  _135
REMARK   59  A    between atoms: _135  and  _136
REMARK   60  A    between atoms: _138  and  _140
REMARK   61  A    between atoms: _140  and  _141
REMARK   62  A    between atoms: _143  and  _145
REMARK   63  A    between atoms: _145  and  _146
REMARK   64  A    between atoms: _145  and  _148
REMARK   65  A    between atoms: _148  and  _149
REMARK   66  A    between atoms: _152  and  _154
REMARK   67  A    between atoms: _154  and  _155
REMARK   68  A    between atoms: _157  and  _159
REMARK   69  A    between atoms: _159  and  _160
REMARK   70  A    between atoms: _162  and  _164
REMARK   71  A    between atoms: _164  and  _165
REMARK   72  A    between atoms: _164  and  _167
REMARK   73  A    between atoms: _167  and  _168
REMARK   74  A    between atoms: _174  and  _176
REMARK   75  A    between atoms: _176  and  _177
REMARK   76  A    between atoms: _176  and  _179
REMARK   77  A    between atoms: _179  and  _180
REMARK   78  A    between atoms: _183  and  _185
REMARK   79  A    between atoms: _185  and  _186
REMARK   80  A    between atoms: _185  and  _188
REMARK   81  A    between atoms: _191  and  _193
REMARK   82  A    between atoms: _193  and  _194
REMARK   83  A    between atoms: _193  and  _196
REMARK   84  A    between atoms: _196  and  _197
REMARK   85  A    between atoms: _200  and  _202
REMARK   86  A    between atoms: _202  and  _203
REMARK   87  A    between atoms: _202  and  _205
REMARK   88  A    between atoms: _205  and  _206
REMARK   89  A    between atoms: _210  and  _211
REMARK   90  A    between atoms: _216  and  _218
REMARK   91  A    between atoms: _218  and  _219
REMARK   92  A    between atoms: _218  and  _221
REMARK   93  A    between atoms: _224  and  _226
REMARK   94  A    between atoms: _226  and  _227
REMARK   95  A    between atoms: _226  and  _229
REMARK   96  A    between atoms: _229  and  _230
REMARK   97  A    between atoms: _235  and  _237
REMARK   98  A    between atoms: _237  and  _238
REMARK   99  A    between atoms: _237  and  _240
REMARK  100  A    between atoms: _240  and  _241
REMARK  101  A    between atoms: _240  and  _242
REMARK  102  A    between atoms: _244  and  _246
REMARK  103  A    between atoms: _246  and  _247
REMARK  104  A    between atoms: _246  and  _249
REMARK  105  A    between atoms: _249  and  _250
REMARK  106  A    between atoms: _253  and  _255
REMARK  107  A    between atoms: _255  and  _256
REMARK  108  A    between atoms: _258  and  _260
REMARK  109  A    between atoms: _260  and  _261
REMARK  110  A    between atoms: _260  and  _263
REMARK  111  A    between atoms: _263  and  _264
REMARK  112  A    between atoms: _264  and  _265
REMARK  113  A    between atoms: _265  and  _266
REMARK  114  A    between atoms: _275  and  _277
REMARK  115  A    between atoms: _277  and  _278
REMARK  116  A    between atoms: _277  and  _280
REMARK  117  A    between atoms: _280  and  _281
REMARK  118  A    between atoms: _286  and  _288
REMARK  119  A    between atoms: _288  and  _289
REMARK  120  A    between atoms: _288  and  _291
REMARK  121  A    between atoms: _291  and  _292
REMARK  122  A    between atoms: _292  and  _293
REMARK  123  A    between atoms: _293  and  _294
REMARK  124  A    between atoms: _303  and  _305
REMARK  125  A    between atoms: _305  and  _306
REMARK  126  A    between atoms: _305  and  _308
REMARK  127  A    between atoms: _308  and  _309
REMARK  128  A    between atoms: _312  and  _314
REMARK  129  A    between atoms: _314  and  _315
REMARK  130  A    between atoms: _314  and  _317
REMARK  131  A    between atoms: _317  and  _318
REMARK  132  A    between atoms: _321  and  _323
REMARK  133  A    between atoms: _323  and  _324
REMARK  134  A    between atoms: _323  and  _326
REMARK  135  A    between atoms: _326  and  _327
REMARK  136  A    between atoms: _332  and  _334
REMARK  137  A    between atoms: _334  and  _335
REMARK  138  A    between atoms: _334  and  _337
REMARK  139  A    between atoms: _337  and  _338
REMARK  140  A    between atoms: _341  and  _343
REMARK  141  A    between atoms: _343  and  _344
REMARK  142  A    between atoms: _346  and  _348
REMARK  143  A    between atoms: _348  and  _349
REMARK  144  A    between atoms: _352  and  _354
REMARK  145  A    between atoms: _354  and  _355
REMARK  146  A    between atoms: _354  and  _357
REMARK  147  A    between atoms: _357  and  _358
REMARK  148  A    between atoms: _361  and  _363
REMARK  149  A    between atoms: _363  and  _364
REMARK  150  A    between atoms: _363  and  _366
REMARK  151  A    between atoms: _366  and  _367
REMARK  152  A    between atoms: _370  and  _372
REMARK  153  A    between atoms: _372  and  _373
REMARK  154  A    between atoms: _372  and  _375
REMARK  155  A    between atoms: _375  and  _376
REMARK  156  A    between atoms: _379  and  _381
REMARK  157  A    between atoms: _381  and  _382
REMARK  158  A    between atoms: _381  and  _384
REMARK  159  A    between atoms: _387  and  _389
REMARK  160  A    between atoms: _389  and  _390
REMARK  161  A    between atoms: _389  and  _392
REMARK  162  A    between atoms: _392  and  _393
REMARK  163  A    between atoms: _393  and  _394
REMARK  164  A    between atoms: _394  and  _395
REMARK  165  A    between atoms: _395  and  _396
REMARK  166  A    between atoms: _400  and  _402
REMARK  167  A    between atoms: _402  and  _403
REMARK  168  A    between atoms: _402  and  _405
REMARK  169  A    between atoms: _405  and  _406
REMARK  170  A    between atoms: _406  and  _407
REMARK  171  A    between atoms: _409  and  _411
REMARK  172  A    between atoms: _411  and  _412
REMARK  173  A    between atoms: _411  and  _414
REMARK  174  A    between atoms: _414  and  _415
REMARK  175  A    between atoms: _418  and  _420
REMARK  176  A    between atoms: _420  and  _421
REMARK  177  A    between atoms: _423  and  _425
REMARK  178  A    between atoms: _425  and  _426
REMARK  179  A    between atoms: _428  and  _430
REMARK  180  A    between atoms: _430  and  _431
REMARK  181  A    between atoms: _430  and  _433
REMARK  182  A    between atoms: _433  and  _434
REMARK  183  A    between atoms: _437  and  _439
REMARK  184  A    between atoms: _439  and  _440
REMARK  185  A    between atoms: _442  and  _444
REMARK  186  A    between atoms: _444  and  _445
REMARK  187  A    between atoms: _447  and  _449
REMARK  188  A    between atoms: _449  and  _450
REMARK  189  A    between atoms: _449  and  _452
REMARK  190  A    between atoms: _452  and  _453
REMARK  191  A    between atoms: _459  and  _461
REMARK  192  A    between atoms: _461  and  _462
REMARK  193  A    between atoms: _461  and  _464
REMARK  194  A    between atoms: _464  and  _465
REMARK  195  A    between atoms: _468  and  _470
REMARK  196  A    between atoms: _470  and  _471
REMARK  197  A    between atoms: _470  and  _473
REMARK  198  A    between atoms: _473  and  _474
REMARK  199  A    between atoms: _477  and  _479
REMARK  200  A    between atoms: _479  and  _480
REMARK  201  A    between atoms: _479  and  _482
REMARK  202  A    between atoms: _482  and  _483
REMARK  203  A    between atoms: _487  and  _488
REMARK  204  A    between atoms: _493  and  _495
REMARK  205  A    between atoms: _495  and  _496
REMARK  206  A    between atoms: _495  and  _498
REMARK  207  A    between atoms: _501  and  _503
REMARK  208  A    between atoms: _503  and  _504
REMARK  209  A    between atoms: _503  and  _506
REMARK  210  A    between atoms: _506  and  _507
REMARK  211  A    between atoms: _512  and  _514
REMARK  212  A    between atoms: _514  and  _515
REMARK  213  A    between atoms: _514  and  _517
REMARK  214  A    between atoms: _517  and  _518
REMARK  215  A    between atoms: _521  and  _523
REMARK  216  A    between atoms: _523  and  _524
REMARK  217  A    between atoms: _523  and  _526
REMARK  218  A    between atoms: _526  and  _527
REMARK  219  A    between atoms: _530  and  _532
REMARK  220  A    between atoms: _532  and  _533
REMARK  221  A    between atoms: _535  and  _537
REMARK  222  A    between atoms: _537  and  _538
REMARK  223  A    between atoms: _537  and  _540
REMARK  224  A    between atoms: _540  and  _541
REMARK  225  A    between atoms: _541  and  _542
REMARK  226  A    between atoms: _542  and  _543
REMARK  227  A    between atoms: _552  and  _554
REMARK  228  A    between atoms: _554  and  _555
REMARK  229  A    between atoms: _554  and  _557
REMARK  230  A    between atoms: _557  and  _558
REMARK                            x       y       z     vdW  Elec       q    Type
REMARK                         _______ _______ _______ _____ _____    ______ ____
ROOT
ATOM      1  O   HOH     1       8.171  50.372  17.527  0.00  0.00    +0.000 OA
ENDROOT
TORSDOF 0
REMARK  Name = ../refined-set-2016/3bvb/3bvb_pocket.pdb
REMARK  230 active torsions:
REMARK  status: ('A' for Active; 'I' for Inactive)
REMARK    1  A    between atoms: _1  and  _3
REMARK    2  A    between atoms: _3  and  _4
REMARK    3  A    between atoms: _3  and  _6
REMARK    4  A    between atoms: _6  and  _7
REMARK    5  A    between atoms: _7  and  _8
REMARK    6  A    between atoms: _8  and  _9
REMARK    7  A    between atoms: _18  and  _20
REMARK    8  A    between atoms: _20  and  _21
REMARK    9  A    between atoms: _20  and  _23
REMARK   10  A    between atoms: _23  and  _24
REMARK   11  A    between atoms: _27  and  _29
REMARK   12  A    between atoms: _29  and  _30
REMARK   13  A    between atoms: _29  and  _32
REMARK   14  A    between atoms: _32  and  _33
REMARK   15  A    between atoms: _36  and  _38
REMARK   16  A    between atoms: _38  and  _39
REMARK   17  A    between atoms: _38  and  _41
REMARK   18  A    between atoms: _41  and  _42
REMARK   19  A    between atoms: _47  and  _49
REMARK   20  A    between atoms: _49  and  _50
REMARK   21  A    between atoms: _49  and  _52
REMARK   22  A    between atoms: _52  and  _53
REMARK   23  A    between atoms: _56  and  _58
REMARK   24  A    between atoms: _58  and  _59
REMARK   25  A    between atoms: _61  and  _63
REMARK   26  A    between atoms: _63  and  _64
REMARK   27  A    between atoms: _67  and  _69
REMARK   28  A    between atoms: _69  and  _70
REMARK   29  A    between atoms: _69  and  _72
REMARK   30  A    between atoms: _72  and  _73
REMARK   31  A    between atoms: _76  and  _78
REMARK   32  A    between atoms: _78  and  _79
REMARK   33  A    between atoms: _78  and  _81
REMARK   34  A    between atoms: _81  and  _82
REMARK   35  A    between atoms: _85  and  _87
REMARK   36  A    between atoms: _87  and  _88
REMARK   37  A    between atoms: _87  and  _90
REMARK   38  A    between atoms: _90  and  _91
REMARK   39  A    between atoms: _94  and  _96
REMARK   40  A    between atoms: _96  and  _97
REMARK   41  A    between atoms: _96  and  _99
REMARK   42  A    between atoms: _102  and  _104
REMARK   43  A    between atoms: _104  and  _105
REMARK   44  A    between atoms: _104  and  _107
REMARK   45  A    between atoms: _107  and  _108
REMARK   46  A    between atoms: _108  and  _109
REMARK   47  A    between atoms: _109  and  _110
REMARK   48  A    between atoms: _110  and  _111
REMARK   49  A    between atoms: _115  and  _117
REMARK   50  A    between atoms: _117  and  _118
REMARK   51  A    between atoms: _117  and  _120
REMARK   52  A    between atoms: _120  and  _121
REMARK   53  A    between atoms: _121  and  _122
REMARK   54  A    between atoms: _124  and  _126
REMARK   55  A    between atoms: _126  and  _127
REMARK   56  A    between atoms: _126  and  _129
REMARK   57  A    between atoms: _129  and  _130
REMARK   58  A    between atoms: _133  and  _135
REMARK   59  A    between atoms: _135  and  _136
REMARK   60  A    between atoms: _138  and  _140
REMARK   61  A    between atoms: _140  and  _141
REMARK   62  A    between atoms: _143  and  _145
REMARK   63  A    between atoms: _145  and  _146
REMARK   64  A    between atoms: _145  and  _148
REMARK   65  A    between atoms: _148  and  _149
REMARK   66  A    between atoms: _152  and  _154
REMARK   67  A    between atoms: _154  and  _155
REMARK   68  A    between atoms: _157  and  _159
REMARK   69  A    between atoms: _159  and  _160
REMARK   70  A    between atoms: _162  and  _164
REMARK   71  A    between atoms: _164  and  _165
REMARK   72  A    between atoms: _164  and  _167
REMARK   73  A    between atoms: _167  and  _168
REMARK   74  A    between atoms: _174  and  _176
REMARK   75  A    between atoms: _176  and  _177
REMARK   76  A    between atoms: _176  and  _179
REMARK   77  A    between atoms: _179  and  _180
REMARK   78  A    between atoms: _183  and  _185
REMARK   79  A    between atoms: _185  and  _186
REMARK   80  A    between atoms: _185  and  _188
REMARK   81  A    between atoms: _191  and  _193
REMARK   82  A    between atoms: _193  and  _194
REMARK   83  A    between atoms: _193  and  _196
REMARK   84  A    between atoms: _196  and  _197
REMARK   85  A    between atoms: _200  and  _202
REMARK   86  A    between atoms: _202  and  _203
REMARK   87  A    between atoms: _202  and  _205
REMARK   88  A    between atoms: _205  and  _206
REMARK   89  A    between atoms: _210  and  _211
REMARK   90  A    between atoms: _216  and  _218
REMARK   91  A    between atoms: _218  and  _219
REMARK   92  A    between atoms: _218  and  _221
REMARK   93  A    between atoms: _224  and  _226
REMARK   94  A    between atoms: _226  and  _227
REMARK   95  A    between atoms: _226  and  _229
REMARK   96  A    between atoms: _229  and  _230
REMARK   97  A    between atoms: _235  and  _237
REMARK   98  A    between atoms: _237  and  _238
REMARK   99  A    between atoms: _237  and  _240
REMARK  100  A    between atoms: _240  and  _241
REMARK  101  A    between atoms: _240  and  _242
REMARK  102  A    between atoms: _244  and  _246
REMARK  103  A    between atoms: _246  and  _247
REMARK  104  A    between atoms: _246  and  _249
REMARK  105  A    between atoms: _249  and  _250
REMARK  106  A    between atoms: _253  and  _255
REMARK  107  A    between atoms: _255  and  _256
REMARK  108  A    between atoms: _258  and  _260
REMARK  109  A    between atoms: _260  and  _261
REMARK  110  A    between atoms: _260  and  _263
REMARK  111  A    between atoms: _263  and  _264
REMARK  112  A    between atoms: _264  and  _265
REMARK  113  A    between atoms: _265  and  _266
REMARK  114  A    between atoms: _275  and  _277
REMARK  115  A    between atoms: _277  and  _278
REMARK  116  A    between atoms: _277  and  _280
REMARK  117  A    between atoms: _280  and  _281
REMARK  118  A    between atoms: _286  and  _288
REMARK  119  A    between atoms: _288  and  _289
REMARK  120  A    between atoms: _288  and  _291
REMARK  121  A    between atoms: _291  and  _292
REMARK  122  A    between atoms: _292  and  _293
REMARK  123  A    between atoms: _293  and  _294
REMARK  124  A    between atoms: _303  and  _305
REMARK  125  A    between atoms: _305  and  _306
REMARK  126  A    between atoms: _305  and  _308
REMARK  127  A    between atoms: _308  and  _309
REMARK  128  A    between atoms: _312  and  _314
REMARK  129  A    between atoms: _314  and  _315
REMARK  130  A    between atoms: _314  and  _317
REMARK  131  A    between atoms: _317  and  _318
REMARK  132  A    between atoms: _321  and  _323
REMARK  133  A    between atoms: _323  and  _324
REMARK  134  A    between atoms: _323  and  _326
REMARK  135  A    between atoms: _326  and  _327
REMARK  136  A    between atoms: _332  and  _334
REMARK  137  A    between atoms: _334  and  _335
REMARK  138  A    between atoms: _334  and  _337
REMARK  139  A    between atoms: _337  and  _338
REMARK  140  A    between atoms: _341  and  _343
REMARK  141  A    between atoms: _343  and  _344
REMARK  142  A    between atoms: _346  and  _348
REMARK  143  A    between atoms: _348  and  _349
REMARK  144  A    between atoms: _352  and  _354
REMARK  145  A    between atoms: _354  and  _355
REMARK  146  A    between atoms: _354  and  _357
REMARK  147  A    between atoms: _357  and  _358
REMARK  148  A    between atoms: _361  and  _363
REMARK  149  A    between atoms: _363  and  _364
REMARK  150  A    between atoms: _363  and  _366
REMARK  151  A    between atoms: _366  and  _367
REMARK  152  A    between atoms: _370  and  _372
REMARK  153  A    between atoms: _372  and  _373
REMARK  154  A    between atoms: _372  and  _375
REMARK  155  A    between atoms: _375  and  _376
REMARK  156  A    between atoms: _379  and  _381
REMARK  157  A    between atoms: _381  and  _382
REMARK  158  A    between atoms: _381  and  _384
REMARK  159  A    between atoms: _387  and  _389
REMARK  160  A    between atoms: _389  and  _390
REMARK  161  A    between atoms: _389  and  _392
REMARK  162  A    between atoms: _392  and  _393
REMARK  163  A    between atoms: _393  and  _394
REMARK  164  A    between atoms: _394  and  _395
REMARK  165  A    between atoms: _395  and  _396
REMARK  166  A    between atoms: _400  and  _402
REMARK  167  A    between atoms: _402  and  _403
REMARK  168  A    between atoms: _402  and  _405
REMARK  169  A    between atoms: _405  and  _406
REMARK  170  A    between atoms: _406  and  _407
REMARK  171  A    between atoms: _409  and  _411
REMARK  172  A    between atoms: _411  and  _412
REMARK  173  A    between atoms: _411  and  _414
REMARK  174  A    between atoms: _414  and  _415
REMARK  175  A    between atoms: _418  and  _420
REMARK  176  A    between atoms: _420  and  _421
REMARK  177  A    between atoms: _423  and  _425
REMARK  178  A    between atoms: _425  and  _426
REMARK  179  A    between atoms: _428  and  _430
REMARK  180  A    between atoms: _430  and  _431
REMARK  181  A    between atoms: _430  and  _433
REMARK  182  A    between atoms: _433  and  _434
REMARK  183  A    between atoms: _437  and  _439
REMARK  184  A    between atoms: _439  and  _440
REMARK  185  A    between atoms: _442  and  _444
REMARK  186  A    between atoms: _444  and  _445
REMARK  187  A    between atoms: _447  and  _449
REMARK  188  A    between atoms: _449  and  _450
REMARK  189  A    between atoms: _449  and  _452
REMARK  190  A    between atoms: _452  and  _453
REMARK  191  A    between atoms: _459  and  _461
REMARK  192  A    between atoms: _461  and  _462
REMARK  193  A    between atoms: _461  and  _464
REMARK  194  A    between atoms: _464  and  _465
REMARK  195  A    between atoms: _468  and  _470
REMARK  196  A    between atoms: _470  and  _471
REMARK  197  A    between atoms: _470  and  _473
REMARK  198  A    between atoms: _473  and  _474
REMARK  199  A    between atoms: _477  and  _479
REMARK  200  A    between atoms: _479  and  _480
REMARK  201  A    between atoms: _479  and  _482
REMARK  202  A    between atoms: _482  and  _483
REMARK  203  A    between atoms: _487  and  _488
REMARK  204  A    between atoms: _493  and  _495
REMARK  205  A    between atoms: _495  and  _496
REMARK  206  A    between atoms: _495  and  _498
REMARK  207  A    between atoms: _501  and  _503
REMARK  208  A    between atoms: _503  and  _504
REMARK  209  A    between atoms: _503  and  _506
REMARK  210  A    between atoms: _506  and  _507
REMARK  211  A    between atoms: _512  and  _514
REMARK  212  A    between atoms: _514  and  _515
REMARK  213  A    between atoms: _514  and  _517
REMARK  214  A    between atoms: _517  and  _518
REMARK  215  A    between atoms: _521  and  _523
REMARK  216  A    between atoms: _523  and  _524
REMARK  217  A    between atoms: _523  and  _526
REMARK  218  A    between atoms: _526  and  _527
REMARK  219  A    between atoms: _530  and  _532
REMARK  220  A    between atoms: _532  and  _533
REMARK  221  A    between atoms: _535  and  _537
REMARK  222  A    between atoms: _537  and  _538
REMARK  223  A    between atoms: _537  and  _540
REMARK  224  A    between atoms: _540  and  _541
REMARK  225  A    between atoms: _541  and  _542
REMARK  226  A    between atoms: _542  and  _543
REMARK  227  A    between atoms: _552  and  _554
REMARK  228  A    between atoms: _554  and  _555
REMARK  229  A    between atoms: _554  and  _557
REMARK  230  A    between atoms: _557  and  _558
REMARK                            x       y       z     vdW  Elec       q    Type
REMARK                         _______ _______ _______ _____ _____    ______ ____
ROOT
ATOM      1  O   HOH     1      22.316  63.738  11.460  0.00  0.00    +0.000 OA
ENDROOT
TORSDOF 0
REMARK  Name = ../refined-set-2016/3bvb/3bvb_pocket.pdb
REMARK  230 active torsions:
REMARK  status: ('A' for Active; 'I' for Inactive)
REMARK    1  A    between atoms: _1  and  _3
REMARK    2  A    between atoms: _3  and  _4
REMARK    3  A    between atoms: _3  and  _6
REMARK    4  A    between atoms: _6  and  _7
REMARK    5  A    between atoms: _7  and  _8
REMARK    6  A    between atoms: _8  and  _9
REMARK    7  A    between atoms: _18  and  _20
REMARK    8  A    between atoms: _20  and  _21
REMARK    9  A    between atoms: _20  and  _23
REMARK   10  A    between atoms: _23  and  _24
REMARK   11  A    between atoms: _27  and  _29
REMARK   12  A    between atoms: _29  and  _30
REMARK   13  A    between atoms: _29  and  _32
REMARK   14  A    between atoms: _32  and  _33
REMARK   15  A    between atoms: _36  and  _38
REMARK   16  A    between atoms: _38  and  _39
REMARK   17  A    between atoms: _38  and  _41
REMARK   18  A    between atoms: _41  and  _42
REMARK   19  A    between atoms: _47  and  _49
REMARK   20  A    between atoms: _49  and  _50
REMARK   21  A    between atoms: _49  and  _52
REMARK   22  A    between atoms: _52  and  _53
REMARK   23  A    between atoms: _56  and  _58
REMARK   24  A    between atoms: _58  and  _59
REMARK   25  A    between atoms: _61  and  _63
REMARK   26  A    between atoms: _63  and  _64
REMARK   27  A    between atoms: _67  and  _69
REMARK   28  A    between atoms: _69  and  _70
REMARK   29  A    between atoms: _69  and  _72
REMARK   30  A    between atoms: _72  and  _73
REMARK   31  A    between atoms: _76  and  _78
REMARK   32  A    between atoms: _78  and  _79
REMARK   33  A    between atoms: _78  and  _81
REMARK   34  A    between atoms: _81  and  _82
REMARK   35  A    between atoms: _85  and  _87
REMARK   36  A    between atoms: _87  and  _88
REMARK   37  A    between atoms: _87  and  _90
REMARK   38  A    between atoms: _90  and  _91
REMARK   39  A    between atoms: _94  and  _96
REMARK   40  A    between atoms: _96  and  _97
REMARK   41  A    between atoms: _96  and  _99
REMARK   42  A    between atoms: _102  and  _104
REMARK   43  A    between atoms: _104  and  _105
REMARK   44  A    between atoms: _104  and  _107
REMARK   45  A    between atoms: _107  and  _108
REMARK   46  A    between atoms: _108  and  _109
REMARK   47  A    between atoms: _109  and  _110
REMARK   48  A    between atoms: _110  and  _111
REMARK   49  A    between atoms: _115  and  _117
REMARK   50  A    between atoms: _117  and  _118
REMARK   51  A    between atoms: _117  and  _120
REMARK   52  A    between atoms: _120  and  _121
REMARK   53  A    between atoms: _121  and  _122
REMARK   54  A    between atoms: _124  and  _126
REMARK   55  A    between atoms: _126  and  _127
REMARK   56  A    between atoms: _126  and  _129
REMARK   57  A    between atoms: _129  and  _130
REMARK   58  A    between atoms: _133  and  _135
REMARK   59  A    between atoms: _135  and  _136
REMARK   60  A    between atoms: _138  and  _140
REMARK   61  A    between atoms: _140  and  _141
REMARK   62  A    between atoms: _143  and  _145
REMARK   63  A    between atoms: _145  and  _146
REMARK   64  A    between atoms: _145  and  _148
REMARK   65  A    between atoms: _148  and  _149
REMARK   66  A    between atoms: _152  and  _154
REMARK   67  A    between atoms: _154  and  _155
REMARK   68  A    between atoms: _157  and  _159
REMARK   69  A    between atoms: _159  and  _160
REMARK   70  A    between atoms: _162  and  _164
REMARK   71  A    between atoms: _164  and  _165
REMARK   72  A    between atoms: _164  and  _167
REMARK   73  A    between atoms: _167  and  _168
REMARK   74  A    between atoms: _174  and  _176
REMARK   75  A    between atoms: _176  and  _177
REMARK   76  A    between atoms: _176  and  _179
REMARK   77  A    between atoms: _179  and  _180
REMARK   78  A    between atoms: _183  and  _185
REMARK   79  A    between atoms: _185  and  _186
REMARK   80  A    between atoms: _185  and  _188
REMARK   81  A    between atoms: _191  and  _193
REMARK   82  A    between atoms: _193  and  _194
REMARK   83  A    between atoms: _193  and  _196
REMARK   84  A    between atoms: _196  and  _197
REMARK   85  A    between atoms: _200  and  _202
REMARK   86  A    between atoms: _202  and  _203
REMARK   87  A    between atoms: _202  and  _205
REMARK   88  A    between atoms: _205  and  _206
REMARK   89  A    between atoms: _210  and  _211
REMARK   90  A    between atoms: _216  and  _218
REMARK   91  A    between atoms: _218  and  _219
REMARK   92  A    between atoms: _218  and  _221
REMARK   93  A    between atoms: _224  and  _226
REMARK   94  A    between atoms: _226  and  _227
REMARK   95  A    between atoms: _226  and  _229
REMARK   96  A    between atoms: _229  and  _230
REMARK   97  A    between atoms: _235  and  _237
REMARK   98  A    between atoms: _237  and  _238
REMARK   99  A    between atoms: _237  and  _240
REMARK  100  A    between atoms: _240  and  _241
REMARK  101  A    between atoms: _240  and  _242
REMARK  102  A    between atoms: _244  and  _246
REMARK  103  A    between atoms: _246  and  _247
REMARK  104  A    between atoms: _246  and  _249
REMARK  105  A    between atoms: _249  and  _250
REMARK  106  A    between atoms: _253  and  _255
REMARK  107  A    between atoms: _255  and  _256
REMARK  108  A    between atoms: _258  and  _260
REMARK  109  A    between atoms: _260  and  _261
REMARK  110  A    between atoms: _260  and  _263
REMARK  111  A    between atoms: _263  and  _264
REMARK  112  A    between atoms: _264  and  _265
REMARK  113  A    between atoms: _265  and  _266
REMARK  114  A    between atoms: _275  and  _277
REMARK  115  A    between atoms: _277  and  _278
REMARK  116  A    between atoms: _277  and  _280
REMARK  117  A    between atoms: _280  and  _281
REMARK  118  A    between atoms: _286  and  _288
REMARK  119  A    between atoms: _288  and  _289
REMARK  120  A    between atoms: _288  and  _291
REMARK  121  A    between atoms: _291  and  _292
REMARK  122  A    between atoms: _292  and  _293
REMARK  123  A    between atoms: _293  and  _294
REMARK  124  A    between atoms: _303  and  _305
REMARK  125  A    between atoms: _305  and  _306
REMARK  126  A    between atoms: _305  and  _308
REMARK  127  A    between atoms: _308  and  _309
REMARK  128  A    between atoms: _312  and  _314
REMARK  129  A    between atoms: _314  and  _315
REMARK  130  A    between atoms: _314  and  _317
REMARK  131  A    between atoms: _317  and  _318
REMARK  132  A    between atoms: _321  and  _323
REMARK  133  A    between atoms: _323  and  _324
REMARK  134  A    between atoms: _323  and  _326
REMARK  135  A    between atoms: _326  and  _327
REMARK  136  A    between atoms: _332  and  _334
REMARK  137  A    between atoms: _334  and  _335
REMARK  138  A    between atoms: _334  and  _337
REMARK  139  A    between atoms: _337  and  _338
REMARK  140  A    between atoms: _341  and  _343
REMARK  141  A    between atoms: _343  and  _344
REMARK  142  A    between atoms: _346  and  _348
REMARK  143  A    between atoms: _348  and  _349
REMARK  144  A    between atoms: _352  and  _354
REMARK  145  A    between atoms: _354  and  _355
REMARK  146  A    between atoms: _354  and  _357
REMARK  147  A    between atoms: _357  and  _358
REMARK  148  A    between atoms: _361  and  _363
REMARK  149  A    between atoms: _363  and  _364
REMARK  150  A    between atoms: _363  and  _366
REMARK  151  A    between atoms: _366  and  _367
REMARK  152  A    between atoms: _370  and  _372
REMARK  153  A    between atoms: _372  and  _373
REMARK  154  A    between atoms: _372  and  _375
REMARK  155  A    between atoms: _375  and  _376
REMARK  156  A    between atoms: _379  and  _381
REMARK  157  A    between atoms: _381  and  _382
REMARK  158  A    between atoms: _381  and  _384
REMARK  159  A    between atoms: _387  and  _389
REMARK  160  A    between atoms: _389  and  _390
REMARK  161  A    between atoms: _389  and  _392
REMARK  162  A    between atoms: _392  and  _393
REMARK  163  A    between atoms: _393  and  _394
REMARK  164  A    between atoms: _394  and  _395
REMARK  165  A    between atoms: _395  and  _396
REMARK  166  A    between atoms: _400  and  _402
REMARK  167  A    between atoms: _402  and  _403
REMARK  168  A    between atoms: _402  and  _405
REMARK  169  A    between atoms: _405  and  _406
REMARK  170  A    between atoms: _406  and  _407
REMARK  171  A    between atoms: _409  and  _411
REMARK  172  A    between atoms: _411  and  _412
REMARK  173  A    between atoms: _411  and  _414
REMARK  174  A    between atoms: _414  and  _415
REMARK  175  A    between atoms: _418  and  _420
REMARK  176  A    between atoms: _420  and  _421
REMARK  177  A    between atoms: _423  and  _425
REMARK  178  A    between atoms: _425  and  _426
REMARK  179  A    between atoms: _428  and  _430
REMARK  180  A    between atoms: _430  and  _431
REMARK  181  A    between atoms: _430  and  _433
REMARK  182  A    between atoms: _433  and  _434
REMARK  183  A    between atoms: _437  and  _439
REMARK  184  A    between atoms: _439  and  _440
REMARK  185  A    between atoms: _442  and  _444
REMARK  186  A    between atoms: _444  and  _445
REMARK  187  A    between atoms: _447  and  _449
REMARK  188  A    between atoms: _449  and  _450
REMARK  189  A    between atoms: _449  and  _452
REMARK  190  A    between atoms: _452  and  _453
REMARK  191  A    between atoms: _459  and  _461
REMARK  192  A    between atoms: _461  and  _462
REMARK  193  A    between atoms: _461  and  _464
REMARK  194  A    between atoms: _464  and  _465
REMARK  195  A    between atoms: _468  and  _470
REMARK  196  A    between atoms: _470  and  _471
REMARK  197  A    between atoms: _470  and  _473
REMARK  198  A    between atoms: _473  and  _474
REMARK  199  A    between atoms: _477  and  _479
REMARK  200  A    between atoms: _479  and  _480
REMARK  201  A    between atoms: _479  and  _482
REMARK  202  A    between atoms: _482  and  _483
REMARK  203  A    between atoms: _487  and  _488
REMARK  204  A    between atoms: _493  and  _495
REMARK  205  A    between atoms: _495  and  _496
REMARK  206  A    between atoms: _495  and  _498
REMARK  207  A    between atoms: _501  and  _503
REMARK  208  A    between atoms: _503  and  _504
REMARK  209  A    between atoms: _503  and  _506
REMARK  210  A    between atoms: _506  and  _507
REMARK  211  A    between atoms: _512  and  _514
REMARK  212  A    between atoms: _514  and  _515
REMARK  213  A    between atoms: _514  and  _517
REMARK  214  A    between atoms: _517  and  _518
REMARK  215  A    between atoms: _521  and  _523
REMARK  216  A    between atoms: _523  and  _524
REMARK  217  A    between atoms: _523  and  _526
REMARK  218  A    between atoms: _526  and  _527
REMARK  219  A    between atoms: _530  and  _532
REMARK  220  A    between atoms: _532  and  _533
REMARK  221  A    between atoms: _535  and  _537
REMARK  222  A    between atoms: _537  and  _538
REMARK  223  A    between atoms: _537  and  _540
REMARK  224  A    between atoms: _540  and  _541
REMARK  225  A    between atoms: _541  and  _542
REMARK  226  A    between atoms: _542  and  _543
REMARK  227  A    between atoms: _552  and  _554
REMARK  228  A    between atoms: _554  and  _555
REMARK  229  A    between atoms: _554  and  _557
REMARK  230  A    between atoms: _557  and  _558
REMARK                            x       y       z     vdW  Elec       q    Type
REMARK                         _______ _______ _______ _____ _____    ______ ____
ROOT
ATOM      1  O   HOH     1       3.762  51.980  11.584  0.00  0.00    +0.000 OA
ENDROOT
TORSDOF 0
REMARK  Name = ../refined-set-2016/3bvb/3bvb_pocket.pdb
REMARK  230 active torsions:
REMARK  status: ('A' for Active; 'I' for Inactive)
REMARK    1  A    between atoms: _1  and  _3
REMARK    2  A    between atoms: _3  and  _4
REMARK    3  A    between atoms: _3  and  _6
REMARK    4  A    between atoms: _6  and  _7
REMARK    5  A    between atoms: _7  and  _8
REMARK    6  A    between atoms: _8  and  _9
REMARK    7  A    between atoms: _18  and  _20
REMARK    8  A    between atoms: _20  and  _21
REMARK    9  A    between atoms: _20  and  _23
REMARK   10  A    between atoms: _23  and  _24
REMARK   11  A    between atoms: _27  and  _29
REMARK   12  A    between atoms: _29  and  _30
REMARK   13  A    between atoms: _29  and  _32
REMARK   14  A    between atoms: _32  and  _33
REMARK   15  A    between atoms: _36  and  _38
REMARK   16  A    between atoms: _38  and  _39
REMARK   17  A    between atoms: _38  and  _41
REMARK   18  A    between atoms: _41  and  _42
REMARK   19  A    between atoms: _47  and  _49
REMARK   20  A    between atoms: _49  and  _50
REMARK   21  A    between atoms: _49  and  _52
REMARK   22  A    between atoms: _52  and  _53
REMARK   23  A    between atoms: _56  and  _58
REMARK   24  A    between atoms: _58  and  _59
REMARK   25  A    between atoms: _61  and  _63
REMARK   26  A    between atoms: _63  and  _64
REMARK   27  A    between atoms: _67  and  _69
REMARK   28  A    between atoms: _69  and  _70
REMARK   29  A    between atoms: _69  and  _72
REMARK   30  A    between atoms: _72  and  _73
REMARK   31  A    between atoms: _76  and  _78
REMARK   32  A    between atoms: _78  and  _79
REMARK   33  A    between atoms: _78  and  _81
REMARK   34  A    between atoms: _81  and  _82
REMARK   35  A    between atoms: _85  and  _87
REMARK   36  A    between atoms: _87  and  _88
REMARK   37  A    between atoms: _87  and  _90
REMARK   38  A    between atoms: _90  and  _91
REMARK   39  A    between atoms: _94  and  _96
REMARK   40  A    between atoms: _96  and  _97
REMARK   41  A    between atoms: _96  and  _99
REMARK   42  A    between atoms: _102  and  _104
REMARK   43  A    between atoms: _104  and  _105
REMARK   44  A    between atoms: _104  and  _107
REMARK   45  A    between atoms: _107  and  _108
REMARK   46  A    between atoms: _108  and  _109
REMARK   47  A    between atoms: _109  and  _110
REMARK   48  A    between atoms: _110  and  _111
REMARK   49  A    between atoms: _115  and  _117
REMARK   50  A    between atoms: _117  and  _118
REMARK   51  A    between atoms: _117  and  _120
REMARK   52  A    between atoms: _120  and  _121
REMARK   53  A    between atoms: _121  and  _122
REMARK   54  A    between atoms: _124  and  _126
REMARK   55  A    between atoms: _126  and  _127
REMARK   56  A    between atoms: _126  and  _129
REMARK   57  A    between atoms: _129  and  _130
REMARK   58  A    between atoms: _133  and  _135
REMARK   59  A    between atoms: _135  and  _136
REMARK   60  A    between atoms: _138  and  _140
REMARK   61  A    between atoms: _140  and  _141
REMARK   62  A    between atoms: _143  and  _145
REMARK   63  A    between atoms: _145  and  _146
REMARK   64  A    between atoms: _145  and  _148
REMARK   65  A    between atoms: _148  and  _149
REMARK   66  A    between atoms: _152  and  _154
REMARK   67  A    between atoms: _154  and  _155
REMARK   68  A    between atoms: _157  and  _159
REMARK   69  A    between atoms: _159  and  _160
REMARK   70  A    between atoms: _162  and  _164
REMARK   71  A    between atoms: _164  and  _165
REMARK   72  A    between atoms: _164  and  _167
REMARK   73  A    between atoms: _167  and  _168
REMARK   74  A    between atoms: _174  and  _176
REMARK   75  A    between atoms: _176  and  _177
REMARK   76  A    between atoms: _176  and  _179
REMARK   77  A    between atoms: _179  and  _180
REMARK   78  A    between atoms: _183  and  _185
REMARK   79  A    between atoms: _185  and  _186
REMARK   80  A    between atoms: _185  and  _188
REMARK   81  A    between atoms: _191  and  _193
REMARK   82  A    between atoms: _193  and  _194
REMARK   83  A    between atoms: _193  and  _196
REMARK   84  A    between atoms: _196  and  _197
REMARK   85  A    between atoms: _200  and  _202
REMARK   86  A    between atoms: _202  and  _203
REMARK   87  A    between atoms: _202  and  _205
REMARK   88  A    between atoms: _205  and  _206
REMARK   89  A    between atoms: _210  and  _211
REMARK   90  A    between atoms: _216  and  _218
REMARK   91  A    between atoms: _218  and  _219
REMARK   92  A    between atoms: _218  and  _221
REMARK   93  A    between atoms: _224  and  _226
REMARK   94  A    between atoms: _226  and  _227
REMARK   95  A    between atoms: _226  and  _229
REMARK   96  A    between atoms: _229  and  _230
REMARK   97  A    between atoms: _235  and  _237
REMARK   98  A    between atoms: _237  and  _238
REMARK   99  A    between atoms: _237  and  _240
REMARK  100  A    between atoms: _240  and  _241
REMARK  101  A    between atoms: _240  and  _242
REMARK  102  A    between atoms: _244  and  _246
REMARK  103  A    between atoms: _246  and  _247
REMARK  104  A    between atoms: _246  and  _249
REMARK  105  A    between atoms: _249  and  _250
REMARK  106  A    between atoms: _253  and  _255
REMARK  107  A    between atoms: _255  and  _256
REMARK  108  A    between atoms: _258  and  _260
REMARK  109  A    between atoms: _260  and  _261
REMARK  110  A    between atoms: _260  and  _263
REMARK  111  A    between atoms: _263  and  _264
REMARK  112  A    between atoms: _264  and  _265
REMARK  113  A    between atoms: _265  and  _266
REMARK  114  A    between atoms: _275  and  _277
REMARK  115  A    between atoms: _277  and  _278
REMARK  116  A    between atoms: _277  and  _280
REMARK  117  A    between atoms: _280  and  _281
REMARK  118  A    between atoms: _286  and  _288
REMARK  119  A    between atoms: _288  and  _289
REMARK  120  A    between atoms: _288  and  _291
REMARK  121  A    between atoms: _291  and  _292
REMARK  122  A    between atoms: _292  and  _293
REMARK  123  A    between atoms: _293  and  _294
REMARK  124  A    between atoms: _303  and  _305
REMARK  125  A    between atoms: _305  and  _306
REMARK  126  A    between atoms: _305  and  _308
REMARK  127  A    between atoms: _308  and  _309
REMARK  128  A    between atoms: _312  and  _314
REMARK  129  A    between atoms: _314  and  _315
REMARK  130  A    between atoms: _314  and  _317
REMARK  131  A    between atoms: _317  and  _318
REMARK  132  A    between atoms: _321  and  _323
REMARK  133  A    between atoms: _323  and  _324
REMARK  134  A    between atoms: _323  and  _326
REMARK  135  A    between atoms: _326  and  _327
REMARK  136  A    between atoms: _332  and  _334
REMARK  137  A    between atoms: _334  and  _335
REMARK  138  A    between atoms: _334  and  _337
REMARK  139  A    between atoms: _337  and  _338
REMARK  140  A    between atoms: _341  and  _343
REMARK  141  A    between atoms: _343  and  _344
REMARK  142  A    between atoms: _346  and  _348
REMARK  143  A    between atoms: _348  and  _349
REMARK  144  A    between atoms: _352  and  _354
REMARK  145  A    between atoms: _354  and  _355
REMARK  146  A    between atoms: _354  and  _357
REMARK  147  A    between atoms: _357  and  _358
REMARK  148  A    between atoms: _361  and  _363
REMARK  149  A    between atoms: _363  and  _364
REMARK  150  A    between atoms: _363  and  _366
REMARK  151  A    between atoms: _366  and  _367
REMARK  152  A    between atoms: _370  and  _372
REMARK  153  A    between atoms: _372  and  _373
REMARK  154  A    between atoms: _372  and  _375
REMARK  155  A    between atoms: _375  and  _376
REMARK  156  A    between atoms: _379  and  _381
REMARK  157  A    between atoms: _381  and  _382
REMARK  158  A    between atoms: _381  and  _384
REMARK  159  A    between atoms: _387  and  _389
REMARK  160  A    between atoms: _389  and  _390
REMARK  161  A    between atoms: _389  and  _392
REMARK  162  A    between atoms: _392  and  _393
REMARK  163  A    between atoms: _393  and  _394
REMARK  164  A    between atoms: _394  and  _395
REMARK  165  A    between atoms: _395  and  _396
REMARK  166  A    between atoms: _400  and  _402
REMARK  167  A    between atoms: _402  and  _403
REMARK  168  A    between atoms: _402  and  _405
REMARK  169  A    between atoms: _405  and  _406
REMARK  170  A    between atoms: _406  and  _407
REMARK  171  A    between atoms: _409  and  _411
REMARK  172  A    between atoms: _411  and  _412
REMARK  173  A    between atoms: _411  and  _414
REMARK  174  A    between atoms: _414  and  _415
REMARK  175  A    between atoms: _418  and  _420
REMARK  176  A    between atoms: _420  and  _421
REMARK  177  A    between atoms: _423  and  _425
REMARK  178  A    between atoms: _425  and  _426
REMARK  179  A    between atoms: _428  and  _430
REMARK  180  A    between atoms: _430  and  _431
REMARK  181  A    between atoms: _430  and  _433
REMARK  182  A    between atoms: _433  and  _434
REMARK  183  A    between atoms: _437  and  _439
REMARK  184  A    between atoms: _439  and  _440
REMARK  185  A    between atoms: _442  and  _444
REMARK  186  A    between atoms: _444  and  _445
REMARK  187  A    between atoms: _447  and  _449
REMARK  188  A    between atoms: _449  and  _450
REMARK  189  A    between atoms: _449  and  _452
REMARK  190  A    between atoms: _452  and  _453
REMARK  191  A    between atoms: _459  and  _461
REMARK  192  A    between atoms: _461  and  _462
REMARK  193  A    between atoms: _461  and  _464
REMARK  194  A    between atoms: _464  and  _465
REMARK  195  A    between atoms: _468  and  _470
REMARK  196  A    between atoms: _470  and  _471
REMARK  197  A    between atoms: _470  and  _473
REMARK  198  A    between atoms: _473  and  _474
REMARK  199  A    between atoms: _477  and  _479
REMARK  200  A    between atoms: _479  and  _480
REMARK  201  A    between atoms: _479  and  _482
REMARK  202  A    between atoms: _482  and  _483
REMARK  203  A    between atoms: _487  and  _488
REMARK  204  A    between atoms: _493  and  _495
REMARK  205  A    between atoms: _495  and  _496
REMARK  206  A    between atoms: _495  and  _498
REMARK  207  A    between atoms: _501  and  _503
REMARK  208  A    between atoms: _503  and  _504
REMARK  209  A    between atoms: _503  and  _506
REMARK  210  A    between atoms: _506  and  _507
REMARK  211  A    between atoms: _512  and  _514
REMARK  212  A    between atoms: _514  and  _515
REMARK  213  A    between atoms: _514  and  _517
REMARK  214  A    between atoms: _517  and  _518
REMARK  215  A    between atoms: _521  and  _523
REMARK  216  A    between atoms: _523  and  _524
REMARK  217  A    between atoms: _523  and  _526
REMARK  218  A    between atoms: _526  and  _527
REMARK  219  A    between atoms: _530  and  _532
REMARK  220  A    between atoms: _532  and  _533
REMARK  221  A    between atoms: _535  and  _537
REMARK  222  A    between atoms: _537  and  _538
REMARK  223  A    between atoms: _537  and  _540
REMARK  224  A    between atoms: _540  and  _541
REMARK  225  A    between atoms: _541  and  _542
REMARK  226  A    between atoms: _542  and  _543
REMARK  227  A    between atoms: _552  and  _554
REMARK  228  A    between atoms: _554  and  _555
REMARK  229  A    between atoms: _554  and  _557
REMARK  230  A    between atoms: _557  and  _558
REMARK                            x       y       z     vdW  Elec       q    Type
REMARK                         _______ _______ _______ _____ _____    ______ ____
ROOT
ATOM      1  O   HOH     1      22.093  62.989   8.636  0.00  0.00    +0.000 OA
ENDROOT
TORSDOF 0
REMARK  Name = ../refined-set-2016/3bvb/3bvb_pocket.pdb
REMARK  230 active torsions:
REMARK  status: ('A' for Active; 'I' for Inactive)
REMARK    1  A    between atoms: _1  and  _3
REMARK    2  A    between atoms: _3  and  _4
REMARK    3  A    between atoms: _3  and  _6
REMARK    4  A    between atoms: _6  and  _7
REMARK    5  A    between atoms: _7  and  _8
REMARK    6  A    between atoms: _8  and  _9
REMARK    7  A    between atoms: _18  and  _20
REMARK    8  A    between atoms: _20  and  _21
REMARK    9  A    between atoms: _20  and  _23
REMARK   10  A    between atoms: _23  and  _24
REMARK   11  A    between atoms: _27  and  _29
REMARK   12  A    between atoms: _29  and  _30
REMARK   13  A    between atoms: _29  and  _32
REMARK   14  A    between atoms: _32  and  _33
REMARK   15  A    between atoms: _36  and  _38
REMARK   16  A    between atoms: _38  and  _39
REMARK   17  A    between atoms: _38  and  _41
REMARK   18  A    between atoms: _41  and  _42
REMARK   19  A    between atoms: _47  and  _49
REMARK   20  A    between atoms: _49  and  _50
REMARK   21  A    between atoms: _49  and  _52
REMARK   22  A    between atoms: _52  and  _53
REMARK   23  A    between atoms: _56  and  _58
REMARK   24  A    between atoms: _58  and  _59
REMARK   25  A    between atoms: _61  and  _63
REMARK   26  A    between atoms: _63  and  _64
REMARK   27  A    between atoms: _67  and  _69
REMARK   28  A    between atoms: _69  and  _70
REMARK   29  A    between atoms: _69  and  _72
REMARK   30  A    between atoms: _72  and  _73
REMARK   31  A    between atoms: _76  and  _78
REMARK   32  A    between atoms: _78  and  _79
REMARK   33  A    between atoms: _78  and  _81
REMARK   34  A    between atoms: _81  and  _82
REMARK   35  A    between atoms: _85  and  _87
REMARK   36  A    between atoms: _87  and  _88
REMARK   37  A    between atoms: _87  and  _90
REMARK   38  A    between atoms: _90  and  _91
REMARK   39  A    between atoms: _94  and  _96
REMARK   40  A    between atoms: _96  and  _97
REMARK   41  A    between atoms: _96  and  _99
REMARK   42  A    between atoms: _102  and  _104
REMARK   43  A    between atoms: _104  and  _105
REMARK   44  A    between atoms: _104  and  _107
REMARK   45  A    between atoms: _107  and  _108
REMARK   46  A    between atoms: _108  and  _109
REMARK   47  A    between atoms: _109  and  _110
REMARK   48  A    between atoms: _110  and  _111
REMARK   49  A    between atoms: _115  and  _117
REMARK   50  A    between atoms: _117  and  _118
REMARK   51  A    between atoms: _117  and  _120
REMARK   52  A    between atoms: _120  and  _121
REMARK   53  A    between atoms: _121  and  _122
REMARK   54  A    between atoms: _124  and  _126
REMARK   55  A    between atoms: _126  and  _127
REMARK   56  A    between atoms: _126  and  _129
REMARK   57  A    between atoms: _129  and  _130
REMARK   58  A    between atoms: _133  and  _135
REMARK   59  A    between atoms: _135  and  _136
REMARK   60  A    between atoms: _138  and  _140
REMARK   61  A    between atoms: _140  and  _141
REMARK   62  A    between atoms: _143  and  _145
REMARK   63  A    between atoms: _145  and  _146
REMARK   64  A    between atoms: _145  and  _148
REMARK   65  A    between atoms: _148  and  _149
REMARK   66  A    between atoms: _152  and  _154
REMARK   67  A    between atoms: _154  and  _155
REMARK   68  A    between atoms: _157  and  _159
REMARK   69  A    between atoms: _159  and  _160
REMARK   70  A    between atoms: _162  and  _164
REMARK   71  A    between atoms: _164  and  _165
REMARK   72  A    between atoms: _164  and  _167
REMARK   73  A    between atoms: _167  and  _168
REMARK   74  A    between atoms: _174  and  _176
REMARK   75  A    between atoms: _176  and  _177
REMARK   76  A    between atoms: _176  and  _179
REMARK   77  A    between atoms: _179  and  _180
REMARK   78  A    between atoms: _183  and  _185
REMARK   79  A    between atoms: _185  and  _186
REMARK   80  A    between atoms: _185  and  _188
REMARK   81  A    between atoms: _191  and  _193
REMARK   82  A    between atoms: _193  and  _194
REMARK   83  A    between atoms: _193  and  _196
REMARK   84  A    between atoms: _196  and  _197
REMARK   85  A    between atoms: _200  and  _202
REMARK   86  A    between atoms: _202  and  _203
REMARK   87  A    between atoms: _202  and  _205
REMARK   88  A    between atoms: _205  and  _206
REMARK   89  A    between atoms: _210  and  _211
REMARK   90  A    between atoms: _216  and  _218
REMARK   91  A    between atoms: _218  and  _219
REMARK   92  A    between atoms: _218  and  _221
REMARK   93  A    between atoms: _224  and  _226
REMARK   94  A    between atoms: _226  and  _227
REMARK   95  A    between atoms: _226  and  _229
REMARK   96  A    between atoms: _229  and  _230
REMARK   97  A    between atoms: _235  and  _237
REMARK   98  A    between atoms: _237  and  _238
REMARK   99  A    between atoms: _237  and  _240
REMARK  100  A    between atoms: _240  and  _241
REMARK  101  A    between atoms: _240  and  _242
REMARK  102  A    between atoms: _244  and  _246
REMARK  103  A    between atoms: _246  and  _247
REMARK  104  A    between atoms: _246  and  _249
REMARK  105  A    between atoms: _249  and  _250
REMARK  106  A    between atoms: _253  and  _255
REMARK  107  A    between atoms: _255  and  _256
REMARK  108  A    between atoms: _258  and  _260
REMARK  109  A    between atoms: _260  and  _261
REMARK  110  A    between atoms: _260  and  _263
REMARK  111  A    between atoms: _263  and  _264
REMARK  112  A    between atoms: _264  and  _265
REMARK  113  A    between atoms: _265  and  _266
REMARK  114  A    between atoms: _275  and  _277
REMARK  115  A    between atoms: _277  and  _278
REMARK  116  A    between atoms: _277  and  _280
REMARK  117  A    between atoms: _280  and  _281
REMARK  118  A    between atoms: _286  and  _288
REMARK  119  A    between atoms: _288  and  _289
REMARK  120  A    between atoms: _288  and  _291
REMARK  121  A    between atoms: _291  and  _292
REMARK  122  A    between atoms: _292  and  _293
REMARK  123  A    between atoms: _293  and  _294
REMARK  124  A    between atoms: _303  and  _305
REMARK  125  A    between atoms: _305  and  _306
REMARK  126  A    between atoms: _305  and  _308
REMARK  127  A    between atoms: _308  and  _309
REMARK  128  A    between atoms: _312  and  _314
REMARK  129  A    between atoms: _314  and  _315
REMARK  130  A    between atoms: _314  and  _317
REMARK  131  A    between atoms: _317  and  _318
REMARK  132  A    between atoms: _321  and  _323
REMARK  133  A    between atoms: _323  and  _324
REMARK  134  A    between atoms: _323  and  _326
REMARK  135  A    between atoms: _326  and  _327
REMARK  136  A    between atoms: _332  and  _334
REMARK  137  A    between atoms: _334  and  _335
REMARK  138  A    between atoms: _334  and  _337
REMARK  139  A    between atoms: _337  and  _338
REMARK  140  A    between atoms: _341  and  _343
REMARK  141  A    between atoms: _343  and  _344
REMARK  142  A    between atoms: _346  and  _348
REMARK  143  A    between atoms: _348  and  _349
REMARK  144  A    between atoms: _352  and  _354
REMARK  145  A    between atoms: _354  and  _355
REMARK  146  A    between atoms: _354  and  _357
REMARK  147  A    between atoms: _357  and  _358
REMARK  148  A    between atoms: _361  and  _363
REMARK  149  A    between atoms: _363  and  _364
REMARK  150  A    between atoms: _363  and  _366
REMARK  151  A    between atoms: _366  and  _367
REMARK  152  A    between atoms: _370  and  _372
REMARK  153  A    between atoms: _372  and  _373
REMARK  154  A    between atoms: _372  and  _375
REMARK  155  A    between atoms: _375  and  _376
REMARK  156  A    between atoms: _379  and  _381
REMARK  157  A    between atoms: _381  and  _382
REMARK  158  A    between atoms: _381  and  _384
REMARK  159  A    between atoms: _387  and  _389
REMARK  160  A    between atoms: _389  and  _390
REMARK  161  A    between atoms: _389  and  _392
REMARK  162  A    between atoms: _392  and  _393
REMARK  163  A    between atoms: _393  and  _394
REMARK  164  A    between atoms: _394  and  _395
REMARK  165  A    between atoms: _395  and  _396
REMARK  166  A    between atoms: _400  and  _402
REMARK  167  A    between atoms: _402  and  _403
REMARK  168  A    between atoms: _402  and  _405
REMARK  169  A    between atoms: _405  and  _406
REMARK  170  A    between atoms: _406  and  _407
REMARK  171  A    between atoms: _409  and  _411
REMARK  172  A    between atoms: _411  and  _412
REMARK  173  A    between atoms: _411  and  _414
REMARK  174  A    between atoms: _414  and  _415
REMARK  175  A    between atoms: _418  and  _420
REMARK  176  A    between atoms: _420  and  _421
REMARK  177  A    between atoms: _423  and  _425
REMARK  178  A    between atoms: _425  and  _426
REMARK  179  A    between atoms: _428  and  _430
REMARK  180  A    between atoms: _430  and  _431
REMARK  181  A    between atoms: _430  and  _433
REMARK  182  A    between atoms: _433  and  _434
REMARK  183  A    between atoms: _437  and  _439
REMARK  184  A    between atoms: _439  and  _440
REMARK  185  A    between atoms: _442  and  _444
REMARK  186  A    between atoms: _444  and  _445
REMARK  187  A    between atoms: _447  and  _449
REMARK  188  A    between atoms: _449  and  _450
REMARK  189  A    between atoms: _449  and  _452
REMARK  190  A    between atoms: _452  and  _453
REMARK  191  A    between atoms: _459  and  _461
REMARK  192  A    between atoms: _461  and  _462
REMARK  193  A    between atoms: _461  and  _464
REMARK  194  A    between atoms: _464  and  _465
REMARK  195  A    between atoms: _468  and  _470
REMARK  196  A    between atoms: _470  and  _471
REMARK  197  A    between atoms: _470  and  _473
REMARK  198  A    between atoms: _473  and  _474
REMARK  199  A    between atoms: _477  and  _479
REMARK  200  A    between atoms: _479  and  _480
REMARK  201  A    between atoms: _479  and  _482
REMARK  202  A    between atoms: _482  and  _483
REMARK  203  A    between atoms: _487  and  _488
REMARK  204  A    between atoms: _493  and  _495
REMARK  205  A    between atoms: _495  and  _496
REMARK  206  A    between atoms: _495  and  _498
REMARK  207  A    between atoms: _501  and  _503
REMARK  208  A    between atoms: _503  and  _504
REMARK  209  A    between atoms: _503  and  _506
REMARK  210  A    between atoms: _506  and  _507
REMARK  211  A    between atoms: _512  and  _514
REMARK  212  A    between atoms: _514  and  _515
REMARK  213  A    between atoms: _514  and  _517
REMARK  214  A    between atoms: _517  and  _518
REMARK  215  A    between atoms: _521  and  _523
REMARK  216  A    between atoms: _523  and  _524
REMARK  217  A    between atoms: _523  and  _526
REMARK  218  A    between atoms: _526  and  _527
REMARK  219  A    between atoms: _530  and  _532
REMARK  220  A    between atoms: _532  and  _533
REMARK  221  A    between atoms: _535  and  _537
REMARK  222  A    between atoms: _537  and  _538
REMARK  223  A    between atoms: _537  and  _540
REMARK  224  A    between atoms: _540  and  _541
REMARK  225  A    between atoms: _541  and  _542
REMARK  226  A    between atoms: _542  and  _543
REMARK  227  A    between atoms: _552  and  _554
REMARK  228  A    between atoms: _554  and  _555
REMARK  229  A    between atoms: _554  and  _557
REMARK  230  A    between atoms: _557  and  _558
REMARK                            x       y       z     vdW  Elec       q    Type
REMARK                         _______ _______ _______ _____ _____    ______ ____
ROOT
ATOM      1  O   HOH     1       4.331  52.515  15.369  0.00  0.00    +0.000 OA
ENDROOT
TORSDOF 0
REMARK  Name = ../refined-set-2016/3bvb/3bvb_pocket.pdb
REMARK  230 active torsions:
REMARK  status: ('A' for Active; 'I' for Inactive)
REMARK    1  A    between atoms: _1  and  _3
REMARK    2  A    between atoms: _3  and  _4
REMARK    3  A    between atoms: _3  and  _6
REMARK    4  A    between atoms: _6  and  _7
REMARK    5  A    between atoms: _7  and  _8
REMARK    6  A    between atoms: _8  and  _9
REMARK    7  A    between atoms: _18  and  _20
REMARK    8  A    between atoms: _20  and  _21
REMARK    9  A    between atoms: _20  and  _23
REMARK   10  A    between atoms: _23  and  _24
REMARK   11  A    between atoms: _27  and  _29
REMARK   12  A    between atoms: _29  and  _30
REMARK   13  A    between atoms: _29  and  _32
REMARK   14  A    between atoms: _32  and  _33
REMARK   15  A    between atoms: _36  and  _38
REMARK   16  A    between atoms: _38  and  _39
REMARK   17  A    between atoms: _38  and  _41
REMARK   18  A    between atoms: _41  and  _42
REMARK   19  A    between atoms: _47  and  _49
REMARK   20  A    between atoms: _49  and  _50
REMARK   21  A    between atoms: _49  and  _52
REMARK   22  A    between atoms: _52  and  _53
REMARK   23  A    between atoms: _56  and  _58
REMARK   24  A    between atoms: _58  and  _59
REMARK   25  A    between atoms: _61  and  _63
REMARK   26  A    between atoms: _63  and  _64
REMARK   27  A    between atoms: _67  and  _69
REMARK   28  A    between atoms: _69  and  _70
REMARK   29  A    between atoms: _69  and  _72
REMARK   30  A    between atoms: _72  and  _73
REMARK   31  A    between atoms: _76  and  _78
REMARK   32  A    between atoms: _78  and  _79
REMARK   33  A    between atoms: _78  and  _81
REMARK   34  A    between atoms: _81  and  _82
REMARK   35  A    between atoms: _85  and  _87
REMARK   36  A    between atoms: _87  and  _88
REMARK   37  A    between atoms: _87  and  _90
REMARK   38  A    between atoms: _90  and  _91
REMARK   39  A    between atoms: _94  and  _96
REMARK   40  A    between atoms: _96  and  _97
REMARK   41  A    between atoms: _96  and  _99
REMARK   42  A    between atoms: _102  and  _104
REMARK   43  A    between atoms: _104  and  _105
REMARK   44  A    between atoms: _104  and  _107
REMARK   45  A    between atoms: _107  and  _108
REMARK   46  A    between atoms: _108  and  _109
REMARK   47  A    between atoms: _109  and  _110
REMARK   48  A    between atoms: _110  and  _111
REMARK   49  A    between atoms: _115  and  _117
REMARK   50  A    between atoms: _117  and  _118
REMARK   51  A    between atoms: _117  and  _120
REMARK   52  A    between atoms: _120  and  _121
REMARK   53  A    between atoms: _121  and  _122
REMARK   54  A    between atoms: _124  and  _126
REMARK   55  A    between atoms: _126  and  _127
REMARK   56  A    between atoms: _126  and  _129
REMARK   57  A    between atoms: _129  and  _130
REMARK   58  A    between atoms: _133  and  _135
REMARK   59  A    between atoms: _135  and  _136
REMARK   60  A    between atoms: _138  and  _140
REMARK   61  A    between atoms: _140  and  _141
REMARK   62  A    between atoms: _143  and  _145
REMARK   63  A    between atoms: _145  and  _146
REMARK   64  A    between atoms: _145  and  _148
REMARK   65  A    between atoms: _148  and  _149
REMARK   66  A    between atoms: _152  and  _154
REMARK   67  A    between atoms: _154  and  _155
REMARK   68  A    between atoms: _157  and  _159
REMARK   69  A    between atoms: _159  and  _160
REMARK   70  A    between atoms: _162  and  _164
REMARK   71  A    between atoms: _164  and  _165
REMARK   72  A    between atoms: _164  and  _167
REMARK   73  A    between atoms: _167  and  _168
REMARK   74  A    between atoms: _174  and  _176
REMARK   75  A    between atoms: _176  and  _177
REMARK   76  A    between atoms: _176  and  _179
REMARK   77  A    between atoms: _179  and  _180
REMARK   78  A    between atoms: _183  and  _185
REMARK   79  A    between atoms: _185  and  _186
REMARK   80  A    between atoms: _185  and  _188
REMARK   81  A    between atoms: _191  and  _193
REMARK   82  A    between atoms: _193  and  _194
REMARK   83  A    between atoms: _193  and  _196
REMARK   84  A    between atoms: _196  and  _197
REMARK   85  A    between atoms: _200  and  _202
REMARK   86  A    between atoms: _202  and  _203
REMARK   87  A    between atoms: _202  and  _205
REMARK   88  A    between atoms: _205  and  _206
REMARK   89  A    between atoms: _210  and  _211
REMARK   90  A    between atoms: _216  and  _218
REMARK   91  A    between atoms: _218  and  _219
REMARK   92  A    between atoms: _218  and  _221
REMARK   93  A    between atoms: _224  and  _226
REMARK   94  A    between atoms: _226  and  _227
REMARK   95  A    between atoms: _226  and  _229
REMARK   96  A    between atoms: _229  and  _230
REMARK   97  A    between atoms: _235  and  _237
REMARK   98  A    between atoms: _237  and  _238
REMARK   99  A    between atoms: _237  and  _240
REMARK  100  A    between atoms: _240  and  _241
REMARK  101  A    between atoms: _240  and  _242
REMARK  102  A    between atoms: _244  and  _246
REMARK  103  A    between atoms: _246  and  _247
REMARK  104  A    between atoms: _246  and  _249
REMARK  105  A    between atoms: _249  and  _250
REMARK  106  A    between atoms: _253  and  _255
REMARK  107  A    between atoms: _255  and  _256
REMARK  108  A    between atoms: _258  and  _260
REMARK  109  A    between atoms: _260  and  _261
REMARK  110  A    between atoms: _260  and  _263
REMARK  111  A    between atoms: _263  and  _264
REMARK  112  A    between atoms: _264  and  _265
REMARK  113  A    between atoms: _265  and  _266
REMARK  114  A    between atoms: _275  and  _277
REMARK  115  A    between atoms: _277  and  _278
REMARK  116  A    between atoms: _277  and  _280
REMARK  117  A    between atoms: _280  and  _281
REMARK  118  A    between atoms: _286  and  _288
REMARK  119  A    between atoms: _288  and  _289
REMARK  120  A    between atoms: _288  and  _291
REMARK  121  A    between atoms: _291  and  _292
REMARK  122  A    between atoms: _292  and  _293
REMARK  123  A    between atoms: _293  and  _294
REMARK  124  A    between atoms: _303  and  _305
REMARK  125  A    between atoms: _305  and  _306
REMARK  126  A    between atoms: _305  and  _308
REMARK  127  A    between atoms: _308  and  _309
REMARK  128  A    between atoms: _312  and  _314
REMARK  129  A    between atoms: _314  and  _315
REMARK  130  A    between atoms: _314  and  _317
REMARK  131  A    between atoms: _317  and  _318
REMARK  132  A    between atoms: _321  and  _323
REMARK  133  A    between atoms: _323  and  _324
REMARK  134  A    between atoms: _323  and  _326
REMARK  135  A    between atoms: _326  and  _327
REMARK  136  A    between atoms: _332  and  _334
REMARK  137  A    between atoms: _334  and  _335
REMARK  138  A    between atoms: _334  and  _337
REMARK  139  A    between atoms: _337  and  _338
REMARK  140  A    between atoms: _341  and  _343
REMARK  141  A    between atoms: _343  and  _344
REMARK  142  A    between atoms: _346  and  _348
REMARK  143  A    between atoms: _348  and  _349
REMARK  144  A    between atoms: _352  and  _354
REMARK  145  A    between atoms: _354  and  _355
REMARK  146  A    between atoms: _354  and  _357
REMARK  147  A    between atoms: _357  and  _358
REMARK  148  A    between atoms: _361  and  _363
REMARK  149  A    between atoms: _363  and  _364
REMARK  150  A    between atoms: _363  and  _366
REMARK  151  A    between atoms: _366  and  _367
REMARK  152  A    between atoms: _370  and  _372
REMARK  153  A    between atoms: _372  and  _373
REMARK  154  A    between atoms: _372  and  _375
REMARK  155  A    between atoms: _375  and  _376
REMARK  156  A    between atoms: _379  and  _381
REMARK  157  A    between atoms: _381  and  _382
REMARK  158  A    between atoms: _381  and  _384
REMARK  159  A    between atoms: _387  and  _389
REMARK  160  A    between atoms: _389  and  _390
REMARK  161  A    between atoms: _389  and  _392
REMARK  162  A    between atoms: _392  and  _393
REMARK  163  A    between atoms: _393  and  _394
REMARK  164  A    between atoms: _394  and  _395
REMARK  165  A    between atoms: _395  and  _396
REMARK  166  A    between atoms: _400  and  _402
REMARK  167  A    between atoms: _402  and  _403
REMARK  168  A    between atoms: _402  and  _405
REMARK  169  A    between atoms: _405  and  _406
REMARK  170  A    between atoms: _406  and  _407
REMARK  171  A    between atoms: _409  and  _411
REMARK  172  A    between atoms: _411  and  _412
REMARK  173  A    between atoms: _411  and  _414
REMARK  174  A    between atoms: _414  and  _415
REMARK  175  A    between atoms: _418  and  _420
REMARK  176  A    between atoms: _420  and  _421
REMARK  177  A    between atoms: _423  and  _425
REMARK  178  A    between atoms: _425  and  _426
REMARK  179  A    between atoms: _428  and  _430
REMARK  180  A    between atoms: _430  and  _431
REMARK  181  A    between atoms: _430  and  _433
REMARK  182  A    between atoms: _433  and  _434
REMARK  183  A    between atoms: _437  and  _439
REMARK  184  A    between atoms: _439  and  _440
REMARK  185  A    between atoms: _442  and  _444
REMARK  186  A    between atoms: _444  and  _445
REMARK  187  A    between atoms: _447  and  _449
REMARK  188  A    between atoms: _449  and  _450
REMARK  189  A    between atoms: _449  and  _452
REMARK  190  A    between atoms: _452  and  _453
REMARK  191  A    between atoms: _459  and  _461
REMARK  192  A    between atoms: _461  and  _462
REMARK  193  A    between atoms: _461  and  _464
REMARK  194  A    between atoms: _464  and  _465
REMARK  195  A    between atoms: _468  and  _470
REMARK  196  A    between atoms: _470  and  _471
REMARK  197  A    between atoms: _470  and  _473
REMARK  198  A    between atoms: _473  and  _474
REMARK  199  A    between atoms: _477  and  _479
REMARK  200  A    between atoms: _479  and  _480
REMARK  201  A    between atoms: _479  and  _482
REMARK  202  A    between atoms: _482  and  _483
REMARK  203  A    between atoms: _487  and  _488
REMARK  204  A    between atoms: _493  and  _495
REMARK  205  A    between atoms: _495  and  _496
REMARK  206  A    between atoms: _495  and  _498
REMARK  207  A    between atoms: _501  and  _503
REMARK  208  A    between atoms: _503  and  _504
REMARK  209  A    between atoms: _503  and  _506
REMARK  210  A    between atoms: _506  and  _507
REMARK  211  A    between atoms: _512  and  _514
REMARK  212  A    between atoms: _514  and  _515
REMARK  213  A    between atoms: _514  and  _517
REMARK  214  A    between atoms: _517  and  _518
REMARK  215  A    between atoms: _521  and  _523
REMARK  216  A    between atoms: _523  and  _524
REMARK  217  A    between atoms: _523  and  _526
REMARK  218  A    between atoms: _526  and  _527
REMARK  219  A    between atoms: _530  and  _532
REMARK  220  A    between atoms: _532  and  _533
REMARK  221  A    between atoms: _535  and  _537
REMARK  222  A    between atoms: _537  and  _538
REMARK  223  A    between atoms: _537  and  _540
REMARK  224  A    between atoms: _540  and  _541
REMARK  225  A    between atoms: _541  and  _542
REMARK  226  A    between atoms: _542  and  _543
REMARK  227  A    between atoms: _552  and  _554
REMARK  228  A    between atoms: _554  and  _555
REMARK  229  A    between atoms: _554  and  _557
REMARK  230  A    between atoms: _557  and  _558
REMARK                            x       y       z     vdW  Elec       q    Type
REMARK                         _______ _______ _______ _____ _____    ______ ____
ROOT
ATOM      1  O   HOH     1       0.541  58.475  15.287  0.00  0.00    +0.000 OA
ENDROOT
TORSDOF 0
REMARK  Name = ../refined-set-2016/3bvb/3bvb_pocket.pdb
REMARK  230 active torsions:
REMARK  status: ('A' for Active; 'I' for Inactive)
REMARK    1  A    between atoms: _1  and  _3
REMARK    2  A    between atoms: _3  and  _4
REMARK    3  A    between atoms: _3  and  _6
REMARK    4  A    between atoms: _6  and  _7
REMARK    5  A    between atoms: _7  and  _8
REMARK    6  A    between atoms: _8  and  _9
REMARK    7  A    between atoms: _18  and  _20
REMARK    8  A    between atoms: _20  and  _21
REMARK    9  A    between atoms: _20  and  _23
REMARK   10  A    between atoms: _23  and  _24
REMARK   11  A    between atoms: _27  and  _29
REMARK   12  A    between atoms: _29  and  _30
REMARK   13  A    between atoms: _29  and  _32
REMARK   14  A    between atoms: _32  and  _33
REMARK   15  A    between atoms: _36  and  _38
REMARK   16  A    between atoms: _38  and  _39
REMARK   17  A    between atoms: _38  and  _41
REMARK   18  A    between atoms: _41  and  _42
REMARK   19  A    between atoms: _47  and  _49
REMARK   20  A    between atoms: _49  and  _50
REMARK   21  A    between atoms: _49  and  _52
REMARK   22  A    between atoms: _52  and  _53
REMARK   23  A    between atoms: _56  and  _58
REMARK   24  A    between atoms: _58  and  _59
REMARK   25  A    between atoms: _61  and  _63
REMARK   26  A    between atoms: _63  and  _64
REMARK   27  A    between atoms: _67  and  _69
REMARK   28  A    between atoms: _69  and  _70
REMARK   29  A    between atoms: _69  and  _72
REMARK   30  A    between atoms: _72  and  _73
REMARK   31  A    between atoms: _76  and  _78
REMARK   32  A    between atoms: _78  and  _79
REMARK   33  A    between atoms: _78  and  _81
REMARK   34  A    between atoms: _81  and  _82
REMARK   35  A    between atoms: _85  and  _87
REMARK   36  A    between atoms: _87  and  _88
REMARK   37  A    between atoms: _87  and  _90
REMARK   38  A    between atoms: _90  and  _91
REMARK   39  A    between atoms: _94  and  _96
REMARK   40  A    between atoms: _96  and  _97
REMARK   41  A    between atoms: _96  and  _99
REMARK   42  A    between atoms: _102  and  _104
REMARK   43  A    between atoms: _104  and  _105
REMARK   44  A    between atoms: _104  and  _107
REMARK   45  A    between atoms: _107  and  _108
REMARK   46  A    between atoms: _108  and  _109
REMARK   47  A    between atoms: _109  and  _110
REMARK   48  A    between atoms: _110  and  _111
REMARK   49  A    between atoms: _115  and  _117
REMARK   50  A    between atoms: _117  and  _118
REMARK   51  A    between atoms: _117  and  _120
REMARK   52  A    between atoms: _120  and  _121
REMARK   53  A    between atoms: _121  and  _122
REMARK   54  A    between atoms: _124  and  _126
REMARK   55  A    between atoms: _126  and  _127
REMARK   56  A    between atoms: _126  and  _129
REMARK   57  A    between atoms: _129  and  _130
REMARK   58  A    between atoms: _133  and  _135
REMARK   59  A    between atoms: _135  and  _136
REMARK   60  A    between atoms: _138  and  _140
REMARK   61  A    between atoms: _140  and  _141
REMARK   62  A    between atoms: _143  and  _145
REMARK   63  A    between atoms: _145  and  _146
REMARK   64  A    between atoms: _145  and  _148
REMARK   65  A    between atoms: _148  and  _149
REMARK   66  A    between atoms: _152  and  _154
REMARK   67  A    between atoms: _154  and  _155
REMARK   68  A    between atoms: _157  and  _159
REMARK   69  A    between atoms: _159  and  _160
REMARK   70  A    between atoms: _162  and  _164
REMARK   71  A    between atoms: _164  and  _165
REMARK   72  A    between atoms: _164  and  _167
REMARK   73  A    between atoms: _167  and  _168
REMARK   74  A    between atoms: _174  and  _176
REMARK   75  A    between atoms: _176  and  _177
REMARK   76  A    between atoms: _176  and  _179
REMARK   77  A    between atoms: _179  and  _180
REMARK   78  A    between atoms: _183  and  _185
REMARK   79  A    between atoms: _185  and  _186
REMARK   80  A    between atoms: _185  and  _188
REMARK   81  A    between atoms: _191  and  _193
REMARK   82  A    between atoms: _193  and  _194
REMARK   83  A    between atoms: _193  and  _196
REMARK   84  A    between atoms: _196  and  _197
REMARK   85  A    between atoms: _200  and  _202
REMARK   86  A    between atoms: _202  and  _203
REMARK   87  A    between atoms: _202  and  _205
REMARK   88  A    between atoms: _205  and  _206
REMARK   89  A    between atoms: _210  and  _211
REMARK   90  A    between atoms: _216  and  _218
REMARK   91  A    between atoms: _218  and  _219
REMARK   92  A    between atoms: _218  and  _221
REMARK   93  A    between atoms: _224  and  _226
REMARK   94  A    between atoms: _226  and  _227
REMARK   95  A    between atoms: _226  and  _229
REMARK   96  A    between atoms: _229  and  _230
REMARK   97  A    between atoms: _235  and  _237
REMARK   98  A    between atoms: _237  and  _238
REMARK   99  A    between atoms: _237  and  _240
REMARK  100  A    between atoms: _240  and  _241
REMARK  101  A    between atoms: _240  and  _242
REMARK  102  A    between atoms: _244  and  _246
REMARK  103  A    between atoms: _246  and  _247
REMARK  104  A    between atoms: _246  and  _249
REMARK  105  A    between atoms: _249  and  _250
REMARK  106  A    between atoms: _253  and  _255
REMARK  107  A    between atoms: _255  and  _256
REMARK  108  A    between atoms: _258  and  _260
REMARK  109  A    between atoms: _260  and  _261
REMARK  110  A    between atoms: _260  and  _263
REMARK  111  A    between atoms: _263  and  _264
REMARK  112  A    between atoms: _264  and  _265
REMARK  113  A    between atoms: _265  and  _266
REMARK  114  A    between atoms: _275  and  _277
REMARK  115  A    between atoms: _277  and  _278
REMARK  116  A    between atoms: _277  and  _280
REMARK  117  A    between atoms: _280  and  _281
REMARK  118  A    between atoms: _286  and  _288
REMARK  119  A    between atoms: _288  and  _289
REMARK  120  A    between atoms: _288  and  _291
REMARK  121  A    between atoms: _291  and  _292
REMARK  122  A    between atoms: _292  and  _293
REMARK  123  A    between atoms: _293  and  _294
REMARK  124  A    between atoms: _303  and  _305
REMARK  125  A    between atoms: _305  and  _306
REMARK  126  A    between atoms: _305  and  _308
REMARK  127  A    between atoms: _308  and  _309
REMARK  128  A    between atoms: _312  and  _314
REMARK  129  A    between atoms: _314  and  _315
REMARK  130  A    between atoms: _314  and  _317
REMARK  131  A    between atoms: _317  and  _318
REMARK  132  A    between atoms: _321  and  _323
REMARK  133  A    between atoms: _323  and  _324
REMARK  134  A    between atoms: _323  and  _326
REMARK  135  A    between atoms: _326  and  _327
REMARK  136  A    between atoms: _332  and  _334
REMARK  137  A    between atoms: _334  and  _335
REMARK  138  A    between atoms: _334  and  _337
REMARK  139  A    between atoms: _337  and  _338
REMARK  140  A    between atoms: _341  and  _343
REMARK  141  A    between atoms: _343  and  _344
REMARK  142  A    between atoms: _346  and  _348
REMARK  143  A    between atoms: _348  and  _349
REMARK  144  A    between atoms: _352  and  _354
REMARK  145  A    between atoms: _354  and  _355
REMARK  146  A    between atoms: _354  and  _357
REMARK  147  A    between atoms: _357  and  _358
REMARK  148  A    between atoms: _361  and  _363
REMARK  149  A    between atoms: _363  and  _364
REMARK  150  A    between atoms: _363  and  _366
REMARK  151  A    between atoms: _366  and  _367
REMARK  152  A    between atoms: _370  and  _372
REMARK  153  A    between atoms: _372  and  _373
REMARK  154  A    between atoms: _372  and  _375
REMARK  155  A    between atoms: _375  and  _376
REMARK  156  A    between atoms: _379  and  _381
REMARK  157  A    between atoms: _381  and  _382
REMARK  158  A    between atoms: _381  and  _384
REMARK  159  A    between atoms: _387  and  _389
REMARK  160  A    between atoms: _389  and  _390
REMARK  161  A    between atoms: _389  and  _392
REMARK  162  A    between atoms: _392  and  _393
REMARK  163  A    between atoms: _393  and  _394
REMARK  164  A    between atoms: _394  and  _395
REMARK  165  A    between atoms: _395  and  _396
REMARK  166  A    between atoms: _400  and  _402
REMARK  167  A    between atoms: _402  and  _403
REMARK  168  A    between atoms: _402  and  _405
REMARK  169  A    between atoms: _405  and  _406
REMARK  170  A    between atoms: _406  and  _407
REMARK  171  A    between atoms: _409  and  _411
REMARK  172  A    between atoms: _411  and  _412
REMARK  173  A    between atoms: _411  and  _414
REMARK  174  A    between atoms: _414  and  _415
REMARK  175  A    between atoms: _418  and  _420
REMARK  176  A    between atoms: _420  and  _421
REMARK  177  A    between atoms: _423  and  _425
REMARK  178  A    between atoms: _425  and  _426
REMARK  179  A    between atoms: _428  and  _430
REMARK  180  A    between atoms: _430  and  _431
REMARK  181  A    between atoms: _430  and  _433
REMARK  182  A    between atoms: _433  and  _434
REMARK  183  A    between atoms: _437  and  _439
REMARK  184  A    between atoms: _439  and  _440
REMARK  185  A    between atoms: _442  and  _444
REMARK  186  A    between atoms: _444  and  _445
REMARK  187  A    between atoms: _447  and  _449
REMARK  188  A    between atoms: _449  and  _450
REMARK  189  A    between atoms: _449  and  _452
REMARK  190  A    between atoms: _452  and  _453
REMARK  191  A    between atoms: _459  and  _461
REMARK  192  A    between atoms: _461  and  _462
REMARK  193  A    between atoms: _461  and  _464
REMARK  194  A    between atoms: _464  and  _465
REMARK  195  A    between atoms: _468  and  _470
REMARK  196  A    between atoms: _470  and  _471
REMARK  197  A    between atoms: _470  and  _473
REMARK  198  A    between atoms: _473  and  _474
REMARK  199  A    between atoms: _477  and  _479
REMARK  200  A    between atoms: _479  and  _480
REMARK  201  A    between atoms: _479  and  _482
REMARK  202  A    between atoms: _482  and  _483
REMARK  203  A    between atoms: _487  and  _488
REMARK  204  A    between atoms: _493  and  _495
REMARK  205  A    between atoms: _495  and  _496
REMARK  206  A    between atoms: _495  and  _498
REMARK  207  A    between atoms: _501  and  _503
REMARK  208  A    between atoms: _503  and  _504
REMARK  209  A    between atoms: _503  and  _506
REMARK  210  A    between atoms: _506  and  _507
REMARK  211  A    between atoms: _512  and  _514
REMARK  212  A    between atoms: _514  and  _515
REMARK  213  A    between atoms: _514  and  _517
REMARK  214  A    between atoms: _517  and  _518
REMARK  215  A    between atoms: _521  and  _523
REMARK  216  A    between atoms: _523  and  _524
REMARK  217  A    between atoms: _523  and  _526
REMARK  218  A    between atoms: _526  and  _527
REMARK  219  A    between atoms: _530  and  _532
REMARK  220  A    between atoms: _532  and  _533
REMARK  221  A    between atoms: _535  and  _537
REMARK  222  A    between atoms: _537  and  _538
REMARK  223  A    between atoms: _537  and  _540
REMARK  224  A    between atoms: _540  and  _541
REMARK  225  A    between atoms: _541  and  _542
REMARK  226  A    between atoms: _542  and  _543
REMARK  227  A    between atoms: _552  and  _554
REMARK  228  A    between atoms: _554  and  _555
REMARK  229  A    between atoms: _554  and  _557
REMARK  230  A    between atoms: _557  and  _558
REMARK                            x       y       z     vdW  Elec       q    Type
REMARK                         _______ _______ _______ _____ _____    ______ ____
ROOT
ATOM      1  O   HOH     1      17.706  68.887   6.918  0.00  0.00    +0.000 OA
ENDROOT
TORSDOF 0
REMARK  Name = ../refined-set-2016/3bvb/3bvb_pocket.pdb
REMARK  230 active torsions:
REMARK  status: ('A' for Active; 'I' for Inactive)
REMARK    1  A    between atoms: _1  and  _3
REMARK    2  A    between atoms: _3  and  _4
REMARK    3  A    between atoms: _3  and  _6
REMARK    4  A    between atoms: _6  and  _7
REMARK    5  A    between atoms: _7  and  _8
REMARK    6  A    between atoms: _8  and  _9
REMARK    7  A    between atoms: _18  and  _20
REMARK    8  A    between atoms: _20  and  _21
REMARK    9  A    between atoms: _20  and  _23
REMARK   10  A    between atoms: _23  and  _24
REMARK   11  A    between atoms: _27  and  _29
REMARK   12  A    between atoms: _29  and  _30
REMARK   13  A    between atoms: _29  and  _32
REMARK   14  A    between atoms: _32  and  _33
REMARK   15  A    between atoms: _36  and  _38
REMARK   16  A    between atoms: _38  and  _39
REMARK   17  A    between atoms: _38  and  _41
REMARK   18  A    between atoms: _41  and  _42
REMARK   19  A    between atoms: _47  and  _49
REMARK   20  A    between atoms: _49  and  _50
REMARK   21  A    between atoms: _49  and  _52
REMARK   22  A    between atoms: _52  and  _53
REMARK   23  A    between atoms: _56  and  _58
REMARK   24  A    between atoms: _58  and  _59
REMARK   25  A    between atoms: _61  and  _63
REMARK   26  A    between atoms: _63  and  _64
REMARK   27  A    between atoms: _67  and  _69
REMARK   28  A    between atoms: _69  and  _70
REMARK   29  A    between atoms: _69  and  _72
REMARK   30  A    between atoms: _72  and  _73
REMARK   31  A    between atoms: _76  and  _78
REMARK   32  A    between atoms: _78  and  _79
REMARK   33  A    between atoms: _78  and  _81
REMARK   34  A    between atoms: _81  and  _82
REMARK   35  A    between atoms: _85  and  _87
REMARK   36  A    between atoms: _87  and  _88
REMARK   37  A    between atoms: _87  and  _90
REMARK   38  A    between atoms: _90  and  _91
REMARK   39  A    between atoms: _94  and  _96
REMARK   40  A    between atoms: _96  and  _97
REMARK   41  A    between atoms: _96  and  _99
REMARK   42  A    between atoms: _102  and  _104
REMARK   43  A    between atoms: _104  and  _105
REMARK   44  A    between atoms: _104  and  _107
REMARK   45  A    between atoms: _107  and  _108
REMARK   46  A    between atoms: _108  and  _109
REMARK   47  A    between atoms: _109  and  _110
REMARK   48  A    between atoms: _110  and  _111
REMARK   49  A    between atoms: _115  and  _117
REMARK   50  A    between atoms: _117  and  _118
REMARK   51  A    between atoms: _117  and  _120
REMARK   52  A    between atoms: _120  and  _121
REMARK   53  A    between atoms: _121  and  _122
REMARK   54  A    between atoms: _124  and  _126
REMARK   55  A    between atoms: _126  and  _127
REMARK   56  A    between atoms: _126  and  _129
REMARK   57  A    between atoms: _129  and  _130
REMARK   58  A    between atoms: _133  and  _135
REMARK   59  A    between atoms: _135  and  _136
REMARK   60  A    between atoms: _138  and  _140
REMARK   61  A    between atoms: _140  and  _141
REMARK   62  A    between atoms: _143  and  _145
REMARK   63  A    between atoms: _145  and  _146
REMARK   64  A    between atoms: _145  and  _148
REMARK   65  A    between atoms: _148  and  _149
REMARK   66  A    between atoms: _152  and  _154
REMARK   67  A    between atoms: _154  and  _155
REMARK   68  A    between atoms: _157  and  _159
REMARK   69  A    between atoms: _159  and  _160
REMARK   70  A    between atoms: _162  and  _164
REMARK   71  A    between atoms: _164  and  _165
REMARK   72  A    between atoms: _164  and  _167
REMARK   73  A    between atoms: _167  and  _168
REMARK   74  A    between atoms: _174  and  _176
REMARK   75  A    between atoms: _176  and  _177
REMARK   76  A    between atoms: _176  and  _179
REMARK   77  A    between atoms: _179  and  _180
REMARK   78  A    between atoms: _183  and  _185
REMARK   79  A    between atoms: _185  and  _186
REMARK   80  A    between atoms: _185  and  _188
REMARK   81  A    between atoms: _191  and  _193
REMARK   82  A    between atoms: _193  and  _194
REMARK   83  A    between atoms: _193  and  _196
REMARK   84  A    between atoms: _196  and  _197
REMARK   85  A    between atoms: _200  and  _202
REMARK   86  A    between atoms: _202  and  _203
REMARK   87  A    between atoms: _202  and  _205
REMARK   88  A    between atoms: _205  and  _206
REMARK   89  A    between atoms: _210  and  _211
REMARK   90  A    between atoms: _216  and  _218
REMARK   91  A    between atoms: _218  and  _219
REMARK   92  A    between atoms: _218  and  _221
REMARK   93  A    between atoms: _224  and  _226
REMARK   94  A    between atoms: _226  and  _227
REMARK   95  A    between atoms: _226  and  _229
REMARK   96  A    between atoms: _229  and  _230
REMARK   97  A    between atoms: _235  and  _237
REMARK   98  A    between atoms: _237  and  _238
REMARK   99  A    between atoms: _237  and  _240
REMARK  100  A    between atoms: _240  and  _241
REMARK  101  A    between atoms: _240  and  _242
REMARK  102  A    between atoms: _244  and  _246
REMARK  103  A    between atoms: _246  and  _247
REMARK  104  A    between atoms: _246  and  _249
REMARK  105  A    between atoms: _249  and  _250
REMARK  106  A    between atoms: _253  and  _255
REMARK  107  A    between atoms: _255  and  _256
REMARK  108  A    between atoms: _258  and  _260
REMARK  109  A    between atoms: _260  and  _261
REMARK  110  A    between atoms: _260  and  _263
REMARK  111  A    between atoms: _263  and  _264
REMARK  112  A    between atoms: _264  and  _265
REMARK  113  A    between atoms: _265  and  _266
REMARK  114  A    between atoms: _275  and  _277
REMARK  115  A    between atoms: _277  and  _278
REMARK  116  A    between atoms: _277  and  _280
REMARK  117  A    between atoms: _280  and  _281
REMARK  118  A    between atoms: _286  and  _288
REMARK  119  A    between atoms: _288  and  _289
REMARK  120  A    between atoms: _288  and  _291
REMARK  121  A    between atoms: _291  and  _292
REMARK  122  A    between atoms: _292  and  _293
REMARK  123  A    between atoms: _293  and  _294
REMARK  124  A    between atoms: _303  and  _305
REMARK  125  A    between atoms: _305  and  _306
REMARK  126  A    between atoms: _305  and  _308
REMARK  127  A    between atoms: _308  and  _309
REMARK  128  A    between atoms: _312  and  _314
REMARK  129  A    between atoms: _314  and  _315
REMARK  130  A    between atoms: _314  and  _317
REMARK  131  A    between atoms: _317  and  _318
REMARK  132  A    between atoms: _321  and  _323
REMARK  133  A    between atoms: _323  and  _324
REMARK  134  A    between atoms: _323  and  _326
REMARK  135  A    between atoms: _326  and  _327
REMARK  136  A    between atoms: _332  and  _334
REMARK  137  A    between atoms: _334  and  _335
REMARK  138  A    between atoms: _334  and  _337
REMARK  139  A    between atoms: _337  and  _338
REMARK  140  A    between atoms: _341  and  _343
REMARK  141  A    between atoms: _343  and  _344
REMARK  142  A    between atoms: _346  and  _348
REMARK  143  A    between atoms: _348  and  _349
REMARK  144  A    between atoms: _352  and  _354
REMARK  145  A    between atoms: _354  and  _355
REMARK  146  A    between atoms: _354  and  _357
REMARK  147  A    between atoms: _357  and  _358
REMARK  148  A    between atoms: _361  and  _363
REMARK  149  A    between atoms: _363  and  _364
REMARK  150  A    between atoms: _363  and  _366
REMARK  151  A    between atoms: _366  and  _367
REMARK  152  A    between atoms: _370  and  _372
REMARK  153  A    between atoms: _372  and  _373
REMARK  154  A    between atoms: _372  and  _375
REMARK  155  A    between atoms: _375  and  _376
REMARK  156  A    between atoms: _379  and  _381
REMARK  157  A    between atoms: _381  and  _382
REMARK  158  A    between atoms: _381  and  _384
REMARK  159  A    between atoms: _387  and  _389
REMARK  160  A    between atoms: _389  and  _390
REMARK  161  A    between atoms: _389  and  _392
REMARK  162  A    between atoms: _392  and  _393
REMARK  163  A    between atoms: _393  and  _394
REMARK  164  A    between atoms: _394  and  _395
REMARK  165  A    between atoms: _395  and  _396
REMARK  166  A    between atoms: _400  and  _402
REMARK  167  A    between atoms: _402  and  _403
REMARK  168  A    between atoms: _402  and  _405
REMARK  169  A    between atoms: _405  and  _406
REMARK  170  A    between atoms: _406  and  _407
REMARK  171  A    between atoms: _409  and  _411
REMARK  172  A    between atoms: _411  and  _412
REMARK  173  A    between atoms: _411  and  _414
REMARK  174  A    between atoms: _414  and  _415
REMARK  175  A    between atoms: _418  and  _420
REMARK  176  A    between atoms: _420  and  _421
REMARK  177  A    between atoms: _423  and  _425
REMARK  178  A    between atoms: _425  and  _426
REMARK  179  A    between atoms: _428  and  _430
REMARK  180  A    between atoms: _430  and  _431
REMARK  181  A    between atoms: _430  and  _433
REMARK  182  A    between atoms: _433  and  _434
REMARK  183  A    between atoms: _437  and  _439
REMARK  184  A    between atoms: _439  and  _440
REMARK  185  A    between atoms: _442  and  _444
REMARK  186  A    between atoms: _444  and  _445
REMARK  187  A    between atoms: _447  and  _449
REMARK  188  A    between atoms: _449  and  _450
REMARK  189  A    between atoms: _449  and  _452
REMARK  190  A    between atoms: _452  and  _453
REMARK  191  A    between atoms: _459  and  _461
REMARK  192  A    between atoms: _461  and  _462
REMARK  193  A    between atoms: _461  and  _464
REMARK  194  A    between atoms: _464  and  _465
REMARK  195  A    between atoms: _468  and  _470
REMARK  196  A    between atoms: _470  and  _471
REMARK  197  A    between atoms: _470  and  _473
REMARK  198  A    between atoms: _473  and  _474
REMARK  199  A    between atoms: _477  and  _479
REMARK  200  A    between atoms: _479  and  _480
REMARK  201  A    between atoms: _479  and  _482
REMARK  202  A    between atoms: _482  and  _483
REMARK  203  A    between atoms: _487  and  _488
REMARK  204  A    between atoms: _493  and  _495
REMARK  205  A    between atoms: _495  and  _496
REMARK  206  A    between atoms: _495  and  _498
REMARK  207  A    between atoms: _501  and  _503
REMARK  208  A    between atoms: _503  and  _504
REMARK  209  A    between atoms: _503  and  _506
REMARK  210  A    between atoms: _506  and  _507
REMARK  211  A    between atoms: _512  and  _514
REMARK  212  A    between atoms: _514  and  _515
REMARK  213  A    between atoms: _514  and  _517
REMARK  214  A    between atoms: _517  and  _518
REMARK  215  A    between atoms: _521  and  _523
REMARK  216  A    between atoms: _523  and  _524
REMARK  217  A    between atoms: _523  and  _526
REMARK  218  A    between atoms: _526  and  _527
REMARK  219  A    between atoms: _530  and  _532
REMARK  220  A    between atoms: _532  and  _533
REMARK  221  A    between atoms: _535  and  _537
REMARK  222  A    between atoms: _537  and  _538
REMARK  223  A    between atoms: _537  and  _540
REMARK  224  A    between atoms: _540  and  _541
REMARK  225  A    between atoms: _541  and  _542
REMARK  226  A    between atoms: _542  and  _543
REMARK  227  A    between atoms: _552  and  _554
REMARK  228  A    between atoms: _554  and  _555
REMARK  229  A    between atoms: _554  and  _557
REMARK  230  A    between atoms: _557  and  _558
REMARK                            x       y       z     vdW  Elec       q    Type
REMARK                         _______ _______ _______ _____ _____    ______ ____
ROOT
ATOM      1  O   HOH     1      19.751  64.979   7.052  0.00  0.00    +0.000 OA
ENDROOT
TORSDOF 0
REMARK  Name = ../refined-set-2016/3bvb/3bvb_pocket.pdb
REMARK  230 active torsions:
REMARK  status: ('A' for Active; 'I' for Inactive)
REMARK    1  A    between atoms: _1  and  _3
REMARK    2  A    between atoms: _3  and  _4
REMARK    3  A    between atoms: _3  and  _6
REMARK    4  A    between atoms: _6  and  _7
REMARK    5  A    between atoms: _7  and  _8
REMARK    6  A    between atoms: _8  and  _9
REMARK    7  A    between atoms: _18  and  _20
REMARK    8  A    between atoms: _20  and  _21
REMARK    9  A    between atoms: _20  and  _23
REMARK   10  A    between atoms: _23  and  _24
REMARK   11  A    between atoms: _27  and  _29
REMARK   12  A    between atoms: _29  and  _30
REMARK   13  A    between atoms: _29  and  _32
REMARK   14  A    between atoms: _32  and  _33
REMARK   15  A    between atoms: _36  and  _38
REMARK   16  A    between atoms: _38  and  _39
REMARK   17  A    between atoms: _38  and  _41
REMARK   18  A    between atoms: _41  and  _42
REMARK   19  A    between atoms: _47  and  _49
REMARK   20  A    between atoms: _49  and  _50
REMARK   21  A    between atoms: _49  and  _52
REMARK   22  A    between atoms: _52  and  _53
REMARK   23  A    between atoms: _56  and  _58
REMARK   24  A    between atoms: _58  and  _59
REMARK   25  A    between atoms: _61  and  _63
REMARK   26  A    between atoms: _63  and  _64
REMARK   27  A    between atoms: _67  and  _69
REMARK   28  A    between atoms: _69  and  _70
REMARK   29  A    between atoms: _69  and  _72
REMARK   30  A    between atoms: _72  and  _73
REMARK   31  A    between atoms: _76  and  _78
REMARK   32  A    between atoms: _78  and  _79
REMARK   33  A    between atoms: _78  and  _81
REMARK   34  A    between atoms: _81  and  _82
REMARK   35  A    between atoms: _85  and  _87
REMARK   36  A    between atoms: _87  and  _88
REMARK   37  A    between atoms: _87  and  _90
REMARK   38  A    between atoms: _90  and  _91
REMARK   39  A    between atoms: _94  and  _96
REMARK   40  A    between atoms: _96  and  _97
REMARK   41  A    between atoms: _96  and  _99
REMARK   42  A    between atoms: _102  and  _104
REMARK   43  A    between atoms: _104  and  _105
REMARK   44  A    between atoms: _104  and  _107
REMARK   45  A    between atoms: _107  and  _108
REMARK   46  A    between atoms: _108  and  _109
REMARK   47  A    between atoms: _109  and  _110
REMARK   48  A    between atoms: _110  and  _111
REMARK   49  A    between atoms: _115  and  _117
REMARK   50  A    between atoms: _117  and  _118
REMARK   51  A    between atoms: _117  and  _120
REMARK   52  A    between atoms: _120  and  _121
REMARK   53  A    between atoms: _121  and  _122
REMARK   54  A    between atoms: _124  and  _126
REMARK   55  A    between atoms: _126  and  _127
REMARK   56  A    between atoms: _126  and  _129
REMARK   57  A    between atoms: _129  and  _130
REMARK   58  A    between atoms: _133  and  _135
REMARK   59  A    between atoms: _135  and  _136
REMARK   60  A    between atoms: _138  and  _140
REMARK   61  A    between atoms: _140  and  _141
REMARK   62  A    between atoms: _143  and  _145
REMARK   63  A    between atoms: _145  and  _146
REMARK   64  A    between atoms: _145  and  _148
REMARK   65  A    between atoms: _148  and  _149
REMARK   66  A    between atoms: _152  and  _154
REMARK   67  A    between atoms: _154  and  _155
REMARK   68  A    between atoms: _157  and  _159
REMARK   69  A    between atoms: _159  and  _160
REMARK   70  A    between atoms: _162  and  _164
REMARK   71  A    between atoms: _164  and  _165
REMARK   72  A    between atoms: _164  and  _167
REMARK   73  A    between atoms: _167  and  _168
REMARK   74  A    between atoms: _174  and  _176
REMARK   75  A    between atoms: _176  and  _177
REMARK   76  A    between atoms: _176  and  _179
REMARK   77  A    between atoms: _179  and  _180
REMARK   78  A    between atoms: _183  and  _185
REMARK   79  A    between atoms: _185  and  _186
REMARK   80  A    between atoms: _185  and  _188
REMARK   81  A    between atoms: _191  and  _193
REMARK   82  A    between atoms: _193  and  _194
REMARK   83  A    between atoms: _193  and  _196
REMARK   84  A    between atoms: _196  and  _197
REMARK   85  A    between atoms: _200  and  _202
REMARK   86  A    between atoms: _202  and  _203
REMARK   87  A    between atoms: _202  and  _205
REMARK   88  A    between atoms: _205  and  _206
REMARK   89  A    between atoms: _210  and  _211
REMARK   90  A    between atoms: _216  and  _218
REMARK   91  A    between atoms: _218  and  _219
REMARK   92  A    between atoms: _218  and  _221
REMARK   93  A    between atoms: _224  and  _226
REMARK   94  A    between atoms: _226  and  _227
REMARK   95  A    between atoms: _226  and  _229
REMARK   96  A    between atoms: _229  and  _230
REMARK   97  A    between atoms: _235  and  _237
REMARK   98  A    between atoms: _237  and  _238
REMARK   99  A    between atoms: _237  and  _240
REMARK  100  A    between atoms: _240  and  _241
REMARK  101  A    between atoms: _240  and  _242
REMARK  102  A    between atoms: _244  and  _246
REMARK  103  A    between atoms: _246  and  _247
REMARK  104  A    between atoms: _246  and  _249
REMARK  105  A    between atoms: _249  and  _250
REMARK  106  A    between atoms: _253  and  _255
REMARK  107  A    between atoms: _255  and  _256
REMARK  108  A    between atoms: _258  and  _260
REMARK  109  A    between atoms: _260  and  _261
REMARK  110  A    between atoms: _260  and  _263
REMARK  111  A    between atoms: _263  and  _264
REMARK  112  A    between atoms: _264  and  _265
REMARK  113  A    between atoms: _265  and  _266
REMARK  114  A    between atoms: _275  and  _277
REMARK  115  A    between atoms: _277  and  _278
REMARK  116  A    between atoms: _277  and  _280
REMARK  117  A    between atoms: _280  and  _281
REMARK  118  A    between atoms: _286  and  _288
REMARK  119  A    between atoms: _288  and  _289
REMARK  120  A    between atoms: _288  and  _291
REMARK  121  A    between atoms: _291  and  _292
REMARK  122  A    between atoms: _292  and  _293
REMARK  123  A    between atoms: _293  and  _294
REMARK  124  A    between atoms: _303  and  _305
REMARK  125  A    between atoms: _305  and  _306
REMARK  126  A    between atoms: _305  and  _308
REMARK  127  A    between atoms: _308  and  _309
REMARK  128  A    between atoms: _312  and  _314
REMARK  129  A    between atoms: _314  and  _315
REMARK  130  A    between atoms: _314  and  _317
REMARK  131  A    between atoms: _317  and  _318
REMARK  132  A    between atoms: _321  and  _323
REMARK  133  A    between atoms: _323  and  _324
REMARK  134  A    between atoms: _323  and  _326
REMARK  135  A    between atoms: _326  and  _327
REMARK  136  A    between atoms: _332  and  _334
REMARK  137  A    between atoms: _334  and  _335
REMARK  138  A    between atoms: _334  and  _337
REMARK  139  A    between atoms: _337  and  _338
REMARK  140  A    between atoms: _341  and  _343
REMARK  141  A    between atoms: _343  and  _344
REMARK  142  A    between atoms: _346  and  _348
REMARK  143  A    between atoms: _348  and  _349
REMARK  144  A    between atoms: _352  and  _354
REMARK  145  A    between atoms: _354  and  _355
REMARK  146  A    between atoms: _354  and  _357
REMARK  147  A    between atoms: _357  and  _358
REMARK  148  A    between atoms: _361  and  _363
REMARK  149  A    between atoms: _363  and  _364
REMARK  150  A    between atoms: _363  and  _366
REMARK  151  A    between atoms: _366  and  _367
REMARK  152  A    between atoms: _370  and  _372
REMARK  153  A    between atoms: _372  and  _373
REMARK  154  A    between atoms: _372  and  _375
REMARK  155  A    between atoms: _375  and  _376
REMARK  156  A    between atoms: _379  and  _381
REMARK  157  A    between atoms: _381  and  _382
REMARK  158  A    between atoms: _381  and  _384
REMARK  159  A    between atoms: _387  and  _389
REMARK  160  A    between atoms: _389  and  _390
REMARK  161  A    between atoms: _389  and  _392
REMARK  162  A    between atoms: _392  and  _393
REMARK  163  A    between atoms: _393  and  _394
REMARK  164  A    between atoms: _394  and  _395
REMARK  165  A    between atoms: _395  and  _396
REMARK  166  A    between atoms: _400  and  _402
REMARK  167  A    between atoms: _402  and  _403
REMARK  168  A    between atoms: _402  and  _405
REMARK  169  A    between atoms: _405  and  _406
REMARK  170  A    between atoms: _406  and  _407
REMARK  171  A    between atoms: _409  and  _411
REMARK  172  A    between atoms: _411  and  _412
REMARK  173  A    between atoms: _411  and  _414
REMARK  174  A    between atoms: _414  and  _415
REMARK  175  A    between atoms: _418  and  _420
REMARK  176  A    between atoms: _420  and  _421
REMARK  177  A    between atoms: _423  and  _425
REMARK  178  A    between atoms: _425  and  _426
REMARK  179  A    between atoms: _428  and  _430
REMARK  180  A    between atoms: _430  and  _431
REMARK  181  A    between atoms: _430  and  _433
REMARK  182  A    between atoms: _433  and  _434
REMARK  183  A    between atoms: _437  and  _439
REMARK  184  A    between atoms: _439  and  _440
REMARK  185  A    between atoms: _442  and  _444
REMARK  186  A    between atoms: _444  and  _445
REMARK  187  A    between atoms: _447  and  _449
REMARK  188  A    between atoms: _449  and  _450
REMARK  189  A    between atoms: _449  and  _452
REMARK  190  A    between atoms: _452  and  _453
REMARK  191  A    between atoms: _459  and  _461
REMARK  192  A    between atoms: _461  and  _462
REMARK  193  A    between atoms: _461  and  _464
REMARK  194  A    between atoms: _464  and  _465
REMARK  195  A    between atoms: _468  and  _470
REMARK  196  A    between atoms: _470  and  _471
REMARK  197  A    between atoms: _470  and  _473
REMARK  198  A    between atoms: _473  and  _474
REMARK  199  A    between atoms: _477  and  _479
REMARK  200  A    between atoms: _479  and  _480
REMARK  201  A    between atoms: _479  and  _482
REMARK  202  A    between atoms: _482  and  _483
REMARK  203  A    between atoms: _487  and  _488
REMARK  204  A    between atoms: _493  and  _495
REMARK  205  A    between atoms: _495  and  _496
REMARK  206  A    between atoms: _495  and  _498
REMARK  207  A    between atoms: _501  and  _503
REMARK  208  A    between atoms: _503  and  _504
REMARK  209  A    between atoms: _503  and  _506
REMARK  210  A    between atoms: _506  and  _507
REMARK  211  A    between atoms: _512  and  _514
REMARK  212  A    between atoms: _514  and  _515
REMARK  213  A    between atoms: _514  and  _517
REMARK  214  A    between atoms: _517  and  _518
REMARK  215  A    between atoms: _521  and  _523
REMARK  216  A    between atoms: _523  and  _524
REMARK  217  A    between atoms: _523  and  _526
REMARK  218  A    between atoms: _526  and  _527
REMARK  219  A    between atoms: _530  and  _532
REMARK  220  A    between atoms: _532  and  _533
REMARK  221  A    between atoms: _535  and  _537
REMARK  222  A    between atoms: _537  and  _538
REMARK  223  A    between atoms: _537  and  _540
REMARK  224  A    between atoms: _540  and  _541
REMARK  225  A    between atoms: _541  and  _542
REMARK  226  A    between atoms: _542  and  _543
REMARK  227  A    between atoms: _552  and  _554
REMARK  228  A    between atoms: _554  and  _555
REMARK  229  A    between atoms: _554  and  _557
REMARK  230  A    between atoms: _557  and  _558
REMARK                            x       y       z     vdW  Elec       q    Type
REMARK                         _______ _______ _______ _____ _____    ______ ____
ROOT
ATOM      1  O   HOH     1      20.313  63.951  16.729  0.00  0.00    +0.000 OA
ENDROOT
TORSDOF 0
REMARK  Name = ../refined-set-2016/3bvb/3bvb_pocket.pdb
REMARK  230 active torsions:
REMARK  status: ('A' for Active; 'I' for Inactive)
REMARK    1  A    between atoms: _1  and  _3
REMARK    2  A    between atoms: _3  and  _4
REMARK    3  A    between atoms: _3  and  _6
REMARK    4  A    between atoms: _6  and  _7
REMARK    5  A    between atoms: _7  and  _8
REMARK    6  A    between atoms: _8  and  _9
REMARK    7  A    between atoms: _18  and  _20
REMARK    8  A    between atoms: _20  and  _21
REMARK    9  A    between atoms: _20  and  _23
REMARK   10  A    between atoms: _23  and  _24
REMARK   11  A    between atoms: _27  and  _29
REMARK   12  A    between atoms: _29  and  _30
REMARK   13  A    between atoms: _29  and  _32
REMARK   14  A    between atoms: _32  and  _33
REMARK   15  A    between atoms: _36  and  _38
REMARK   16  A    between atoms: _38  and  _39
REMARK   17  A    between atoms: _38  and  _41
REMARK   18  A    between atoms: _41  and  _42
REMARK   19  A    between atoms: _47  and  _49
REMARK   20  A    between atoms: _49  and  _50
REMARK   21  A    between atoms: _49  and  _52
REMARK   22  A    between atoms: _52  and  _53
REMARK   23  A    between atoms: _56  and  _58
REMARK   24  A    between atoms: _58  and  _59
REMARK   25  A    between atoms: _61  and  _63
REMARK   26  A    between atoms: _63  and  _64
REMARK   27  A    between atoms: _67  and  _69
REMARK   28  A    between atoms: _69  and  _70
REMARK   29  A    between atoms: _69  and  _72
REMARK   30  A    between atoms: _72  and  _73
REMARK   31  A    between atoms: _76  and  _78
REMARK   32  A    between atoms: _78  and  _79
REMARK   33  A    between atoms: _78  and  _81
REMARK   34  A    between atoms: _81  and  _82
REMARK   35  A    between atoms: _85  and  _87
REMARK   36  A    between atoms: _87  and  _88
REMARK   37  A    between atoms: _87  and  _90
REMARK   38  A    between atoms: _90  and  _91
REMARK   39  A    between atoms: _94  and  _96
REMARK   40  A    between atoms: _96  and  _97
REMARK   41  A    between atoms: _96  and  _99
REMARK   42  A    between atoms: _102  and  _104
REMARK   43  A    between atoms: _104  and  _105
REMARK   44  A    between atoms: _104  and  _107
REMARK   45  A    between atoms: _107  and  _108
REMARK   46  A    between atoms: _108  and  _109
REMARK   47  A    between atoms: _109  and  _110
REMARK   48  A    between atoms: _110  and  _111
REMARK   49  A    between atoms: _115  and  _117
REMARK   50  A    between atoms: _117  and  _118
REMARK   51  A    between atoms: _117  and  _120
REMARK   52  A    between atoms: _120  and  _121
REMARK   53  A    between atoms: _121  and  _122
REMARK   54  A    between atoms: _124  and  _126
REMARK   55  A    between atoms: _126  and  _127
REMARK   56  A    between atoms: _126  and  _129
REMARK   57  A    between atoms: _129  and  _130
REMARK   58  A    between atoms: _133  and  _135
REMARK   59  A    between atoms: _135  and  _136
REMARK   60  A    between atoms: _138  and  _140
REMARK   61  A    between atoms: _140  and  _141
REMARK   62  A    between atoms: _143  and  _145
REMARK   63  A    between atoms: _145  and  _146
REMARK   64  A    between atoms: _145  and  _148
REMARK   65  A    between atoms: _148  and  _149
REMARK   66  A    between atoms: _152  and  _154
REMARK   67  A    between atoms: _154  and  _155
REMARK   68  A    between atoms: _157  and  _159
REMARK   69  A    between atoms: _159  and  _160
REMARK   70  A    between atoms: _162  and  _164
REMARK   71  A    between atoms: _164  and  _165
REMARK   72  A    between atoms: _164  and  _167
REMARK   73  A    between atoms: _167  and  _168
REMARK   74  A    between atoms: _174  and  _176
REMARK   75  A    between atoms: _176  and  _177
REMARK   76  A    between atoms: _176  and  _179
REMARK   77  A    between atoms: _179  and  _180
REMARK   78  A    between atoms: _183  and  _185
REMARK   79  A    between atoms: _185  and  _186
REMARK   80  A    between atoms: _185  and  _188
REMARK   81  A    between atoms: _191  and  _193
REMARK   82  A    between atoms: _193  and  _194
REMARK   83  A    between atoms: _193  and  _196
REMARK   84  A    between atoms: _196  and  _197
REMARK   85  A    between atoms: _200  and  _202
REMARK   86  A    between atoms: _202  and  _203
REMARK   87  A    between atoms: _202  and  _205
REMARK   88  A    between atoms: _205  and  _206
REMARK   89  A    between atoms: _210  and  _211
REMARK   90  A    between atoms: _216  and  _218
REMARK   91  A    between atoms: _218  and  _219
REMARK   92  A    between atoms: _218  and  _221
REMARK   93  A    between atoms: _224  and  _226
REMARK   94  A    between atoms: _226  and  _227
REMARK   95  A    between atoms: _226  and  _229
REMARK   96  A    between atoms: _229  and  _230
REMARK   97  A    between atoms: _235  and  _237
REMARK   98  A    between atoms: _237  and  _238
REMARK   99  A    between atoms: _237  and  _240
REMARK  100  A    between atoms: _240  and  _241
REMARK  101  A    between atoms: _240  and  _242
REMARK  102  A    between atoms: _244  and  _246
REMARK  103  A    between atoms: _246  and  _247
REMARK  104  A    between atoms: _246  and  _249
REMARK  105  A    between atoms: _249  and  _250
REMARK  106  A    between atoms: _253  and  _255
REMARK  107  A    between atoms: _255  and  _256
REMARK  108  A    between atoms: _258  and  _260
REMARK  109  A    between atoms: _260  and  _261
REMARK  110  A    between atoms: _260  and  _263
REMARK  111  A    between atoms: _263  and  _264
REMARK  112  A    between atoms: _264  and  _265
REMARK  113  A    between atoms: _265  and  _266
REMARK  114  A    between atoms: _275  and  _277
REMARK  115  A    between atoms: _277  and  _278
REMARK  116  A    between atoms: _277  and  _280
REMARK  117  A    between atoms: _280  and  _281
REMARK  118  A    between atoms: _286  and  _288
REMARK  119  A    between atoms: _288  and  _289
REMARK  120  A    between atoms: _288  and  _291
REMARK  121  A    between atoms: _291  and  _292
REMARK  122  A    between atoms: _292  and  _293
REMARK  123  A    between atoms: _293  and  _294
REMARK  124  A    between atoms: _303  and  _305
REMARK  125  A    between atoms: _305  and  _306
REMARK  126  A    between atoms: _305  and  _308
REMARK  127  A    between atoms: _308  and  _309
REMARK  128  A    between atoms: _312  and  _314
REMARK  129  A    between atoms: _314  and  _315
REMARK  130  A    between atoms: _314  and  _317
REMARK  131  A    between atoms: _317  and  _318
REMARK  132  A    between atoms: _321  and  _323
REMARK  133  A    between atoms: _323  and  _324
REMARK  134  A    between atoms: _323  and  _326
REMARK  135  A    between atoms: _326  and  _327
REMARK  136  A    between atoms: _332  and  _334
REMARK  137  A    between atoms: _334  and  _335
REMARK  138  A    between atoms: _334  and  _337
REMARK  139  A    between atoms: _337  and  _338
REMARK  140  A    between atoms: _341  and  _343
REMARK  141  A    between atoms: _343  and  _344
REMARK  142  A    between atoms: _346  and  _348
REMARK  143  A    between atoms: _348  and  _349
REMARK  144  A    between atoms: _352  and  _354
REMARK  145  A    between atoms: _354  and  _355
REMARK  146  A    between atoms: _354  and  _357
REMARK  147  A    between atoms: _357  and  _358
REMARK  148  A    between atoms: _361  and  _363
REMARK  149  A    between atoms: _363  and  _364
REMARK  150  A    between atoms: _363  and  _366
REMARK  151  A    between atoms: _366  and  _367
REMARK  152  A    between atoms: _370  and  _372
REMARK  153  A    between atoms: _372  and  _373
REMARK  154  A    between atoms: _372  and  _375
REMARK  155  A    between atoms: _375  and  _376
REMARK  156  A    between atoms: _379  and  _381
REMARK  157  A    between atoms: _381  and  _382
REMARK  158  A    between atoms: _381  and  _384
REMARK  159  A    between atoms: _387  and  _389
REMARK  160  A    between atoms: _389  and  _390
REMARK  161  A    between atoms: _389  and  _392
REMARK  162  A    between atoms: _392  and  _393
REMARK  163  A    between atoms: _393  and  _394
REMARK  164  A    between atoms: _394  and  _395
REMARK  165  A    between atoms: _395  and  _396
REMARK  166  A    between atoms: _400  and  _402
REMARK  167  A    between atoms: _402  and  _403
REMARK  168  A    between atoms: _402  and  _405
REMARK  169  A    between atoms: _405  and  _406
REMARK  170  A    between atoms: _406  and  _407
REMARK  171  A    between atoms: _409  and  _411
REMARK  172  A    between atoms: _411  and  _412
REMARK  173  A    between atoms: _411  and  _414
REMARK  174  A    between atoms: _414  and  _415
REMARK  175  A    between atoms: _418  and  _420
REMARK  176  A    between atoms: _420  and  _421
REMARK  177  A    between atoms: _423  and  _425
REMARK  178  A    between atoms: _425  and  _426
REMARK  179  A    between atoms: _428  and  _430
REMARK  180  A    between atoms: _430  and  _431
REMARK  181  A    between atoms: _430  and  _433
REMARK  182  A    between atoms: _433  and  _434
REMARK  183  A    between atoms: _437  and  _439
REMARK  184  A    between atoms: _439  and  _440
REMARK  185  A    between atoms: _442  and  _444
REMARK  186  A    between atoms: _444  and  _445
REMARK  187  A    between atoms: _447  and  _449
REMARK  188  A    between atoms: _449  and  _450
REMARK  189  A    between atoms: _449  and  _452
REMARK  190  A    between atoms: _452  and  _453
REMARK  191  A    between atoms: _459  and  _461
REMARK  192  A    between atoms: _461  and  _462
REMARK  193  A    between atoms: _461  and  _464
REMARK  194  A    between atoms: _464  and  _465
REMARK  195  A    between atoms: _468  and  _470
REMARK  196  A    between atoms: _470  and  _471
REMARK  197  A    between atoms: _470  and  _473
REMARK  198  A    between atoms: _473  and  _474
REMARK  199  A    between atoms: _477  and  _479
REMARK  200  A    between atoms: _479  and  _480
REMARK  201  A    between atoms: _479  and  _482
REMARK  202  A    between atoms: _482  and  _483
REMARK  203  A    between atoms: _487  and  _488
REMARK  204  A    between atoms: _493  and  _495
REMARK  205  A    between atoms: _495  and  _496
REMARK  206  A    between atoms: _495  and  _498
REMARK  207  A    between atoms: _501  and  _503
REMARK  208  A    between atoms: _503  and  _504
REMARK  209  A    between atoms: _503  and  _506
REMARK  210  A    between atoms: _506  and  _507
REMARK  211  A    between atoms: _512  and  _514
REMARK  212  A    between atoms: _514  and  _515
REMARK  213  A    between atoms: _514  and  _517
REMARK  214  A    between atoms: _517  and  _518
REMARK  215  A    between atoms: _521  and  _523
REMARK  216  A    between atoms: _523  and  _524
REMARK  217  A    between atoms: _523  and  _526
REMARK  218  A    between atoms: _526  and  _527
REMARK  219  A    between atoms: _530  and  _532
REMARK  220  A    between atoms: _532  and  _533
REMARK  221  A    between atoms: _535  and  _537
REMARK  222  A    between atoms: _537  and  _538
REMARK  223  A    between atoms: _537  and  _540
REMARK  224  A    between atoms: _540  and  _541
REMARK  225  A    between atoms: _541  and  _542
REMARK  226  A    between atoms: _542  and  _543
REMARK  227  A    between atoms: _552  and  _554
REMARK  228  A    between atoms: _554  and  _555
REMARK  229  A    between atoms: _554  and  _557
REMARK  230  A    between atoms: _557  and  _558
REMARK                            x       y       z     vdW  Elec       q    Type
REMARK                         _______ _______ _______ _____ _____    ______ ____
ROOT
ATOM      1  O   HOH     1      18.261  71.009  16.671  0.00  0.00    +0.000 OA
ENDROOT
TORSDOF 0
REMARK  Name = ../refined-set-2016/3bvb/3bvb_pocket.pdb
REMARK  230 active torsions:
REMARK  status: ('A' for Active; 'I' for Inactive)
REMARK    1  A    between atoms: _1  and  _3
REMARK    2  A    between atoms: _3  and  _4
REMARK    3  A    between atoms: _3  and  _6
REMARK    4  A    between atoms: _6  and  _7
REMARK    5  A    between atoms: _7  and  _8
REMARK    6  A    between atoms: _8  and  _9
REMARK    7  A    between atoms: _18  and  _20
REMARK    8  A    between atoms: _20  and  _21
REMARK    9  A    between atoms: _20  and  _23
REMARK   10  A    between atoms: _23  and  _24
REMARK   11  A    between atoms: _27  and  _29
REMARK   12  A    between atoms: _29  and  _30
REMARK   13  A    between atoms: _29  and  _32
REMARK   14  A    between atoms: _32  and  _33
REMARK   15  A    between atoms: _36  and  _38
REMARK   16  A    between atoms: _38  and  _39
REMARK   17  A    between atoms: _38  and  _41
REMARK   18  A    between atoms: _41  and  _42
REMARK   19  A    between atoms: _47  and  _49
REMARK   20  A    between atoms: _49  and  _50
REMARK   21  A    between atoms: _49  and  _52
REMARK   22  A    between atoms: _52  and  _53
REMARK   23  A    between atoms: _56  and  _58
REMARK   24  A    between atoms: _58  and  _59
REMARK   25  A    between atoms: _61  and  _63
REMARK   26  A    between atoms: _63  and  _64
REMARK   27  A    between atoms: _67  and  _69
REMARK   28  A    between atoms: _69  and  _70
REMARK   29  A    between atoms: _69  and  _72
REMARK   30  A    between atoms: _72  and  _73
REMARK   31  A    between atoms: _76  and  _78
REMARK   32  A    between atoms: _78  and  _79
REMARK   33  A    between atoms: _78  and  _81
REMARK   34  A    between atoms: _81  and  _82
REMARK   35  A    between atoms: _85  and  _87
REMARK   36  A    between atoms: _87  and  _88
REMARK   37  A    between atoms: _87  and  _90
REMARK   38  A    between atoms: _90  and  _91
REMARK   39  A    between atoms: _94  and  _96
REMARK   40  A    between atoms: _96  and  _97
REMARK   41  A    between atoms: _96  and  _99
REMARK   42  A    between atoms: _102  and  _104
REMARK   43  A    between atoms: _104  and  _105
REMARK   44  A    between atoms: _104  and  _107
REMARK   45  A    between atoms: _107  and  _108
REMARK   46  A    between atoms: _108  and  _109
REMARK   47  A    between atoms: _109  and  _110
REMARK   48  A    between atoms: _110  and  _111
REMARK   49  A    between atoms: _115  and  _117
REMARK   50  A    between atoms: _117  and  _118
REMARK   51  A    between atoms: _117  and  _120
REMARK   52  A    between atoms: _120  and  _121
REMARK   53  A    between atoms: _121  and  _122
REMARK   54  A    between atoms: _124  and  _126
REMARK   55  A    between atoms: _126  and  _127
REMARK   56  A    between atoms: _126  and  _129
REMARK   57  A    between atoms: _129  and  _130
REMARK   58  A    between atoms: _133  and  _135
REMARK   59  A    between atoms: _135  and  _136
REMARK   60  A    between atoms: _138  and  _140
REMARK   61  A    between atoms: _140  and  _141
REMARK   62  A    between atoms: _143  and  _145
REMARK   63  A    between atoms: _145  and  _146
REMARK   64  A    between atoms: _145  and  _148
REMARK   65  A    between atoms: _148  and  _149
REMARK   66  A    between atoms: _152  and  _154
REMARK   67  A    between atoms: _154  and  _155
REMARK   68  A    between atoms: _157  and  _159
REMARK   69  A    between atoms: _159  and  _160
REMARK   70  A    between atoms: _162  and  _164
REMARK   71  A    between atoms: _164  and  _165
REMARK   72  A    between atoms: _164  and  _167
REMARK   73  A    between atoms: _167  and  _168
REMARK   74  A    between atoms: _174  and  _176
REMARK   75  A    between atoms: _176  and  _177
REMARK   76  A    between atoms: _176  and  _179
REMARK   77  A    between atoms: _179  and  _180
REMARK   78  A    between atoms: _183  and  _185
REMARK   79  A    between atoms: _185  and  _186
REMARK   80  A    between atoms: _185  and  _188
REMARK   81  A    between atoms: _191  and  _193
REMARK   82  A    between atoms: _193  and  _194
REMARK   83  A    between atoms: _193  and  _196
REMARK   84  A    between atoms: _196  and  _197
REMARK   85  A    between atoms: _200  and  _202
REMARK   86  A    between atoms: _202  and  _203
REMARK   87  A    between atoms: _202  and  _205
REMARK   88  A    between atoms: _205  and  _206
REMARK   89  A    between atoms: _210  and  _211
REMARK   90  A    between atoms: _216  and  _218
REMARK   91  A    between atoms: _218  and  _219
REMARK   92  A    between atoms: _218  and  _221
REMARK   93  A    between atoms: _224  and  _226
REMARK   94  A    between atoms: _226  and  _227
REMARK   95  A    between atoms: _226  and  _229
REMARK   96  A    between atoms: _229  and  _230
REMARK   97  A    between atoms: _235  and  _237
REMARK   98  A    between atoms: _237  and  _238
REMARK   99  A    between atoms: _237  and  _240
REMARK  100  A    between atoms: _240  and  _241
REMARK  101  A    between atoms: _240  and  _242
REMARK  102  A    between atoms: _244  and  _246
REMARK  103  A    between atoms: _246  and  _247
REMARK  104  A    between atoms: _246  and  _249
REMARK  105  A    between atoms: _249  and  _250
REMARK  106  A    between atoms: _253  and  _255
REMARK  107  A    between atoms: _255  and  _256
REMARK  108  A    between atoms: _258  and  _260
REMARK  109  A    between atoms: _260  and  _261
REMARK  110  A    between atoms: _260  and  _263
REMARK  111  A    between atoms: _263  and  _264
REMARK  112  A    between atoms: _264  and  _265
REMARK  113  A    between atoms: _265  and  _266
REMARK  114  A    between atoms: _275  and  _277
REMARK  115  A    between atoms: _277  and  _278
REMARK  116  A    between atoms: _277  and  _280
REMARK  117  A    between atoms: _280  and  _281
REMARK  118  A    between atoms: _286  and  _288
REMARK  119  A    between atoms: _288  and  _289
REMARK  120  A    between atoms: _288  and  _291
REMARK  121  A    between atoms: _291  and  _292
REMARK  122  A    between atoms: _292  and  _293
REMARK  123  A    between atoms: _293  and  _294
REMARK  124  A    between atoms: _303  and  _305
REMARK  125  A    between atoms: _305  and  _306
REMARK  126  A    between atoms: _305  and  _308
REMARK  127  A    between atoms: _308  and  _309
REMARK  128  A    between atoms: _312  and  _314
REMARK  129  A    between atoms: _314  and  _315
REMARK  130  A    between atoms: _314  and  _317
REMARK  131  A    between atoms: _317  and  _318
REMARK  132  A    between atoms: _321  and  _323
REMARK  133  A    between atoms: _323  and  _324
REMARK  134  A    between atoms: _323  and  _326
REMARK  135  A    between atoms: _326  and  _327
REMARK  136  A    between atoms: _332  and  _334
REMARK  137  A    between atoms: _334  and  _335
REMARK  138  A    between atoms: _334  and  _337
REMARK  139  A    between atoms: _337  and  _338
REMARK  140  A    between atoms: _341  and  _343
REMARK  141  A    between atoms: _343  and  _344
REMARK  142  A    between atoms: _346  and  _348
REMARK  143  A    between atoms: _348  and  _349
REMARK  144  A    between atoms: _352  and  _354
REMARK  145  A    between atoms: _354  and  _355
REMARK  146  A    between atoms: _354  and  _357
REMARK  147  A    between atoms: _357  and  _358
REMARK  148  A    between atoms: _361  and  _363
REMARK  149  A    between atoms: _363  and  _364
REMARK  150  A    between atoms: _363  and  _366
REMARK  151  A    between atoms: _366  and  _367
REMARK  152  A    between atoms: _370  and  _372
REMARK  153  A    between atoms: _372  and  _373
REMARK  154  A    between atoms: _372  and  _375
REMARK  155  A    between atoms: _375  and  _376
REMARK  156  A    between atoms: _379  and  _381
REMARK  157  A    between atoms: _381  and  _382
REMARK  158  A    between atoms: _381  and  _384
REMARK  159  A    between atoms: _387  and  _389
REMARK  160  A    between atoms: _389  and  _390
REMARK  161  A    between atoms: _389  and  _392
REMARK  162  A    between atoms: _392  and  _393
REMARK  163  A    between atoms: _393  and  _394
REMARK  164  A    between atoms: _394  and  _395
REMARK  165  A    between atoms: _395  and  _396
REMARK  166  A    between atoms: _400  and  _402
REMARK  167  A    between atoms: _402  and  _403
REMARK  168  A    between atoms: _402  and  _405
REMARK  169  A    between atoms: _405  and  _406
REMARK  170  A    between atoms: _406  and  _407
REMARK  171  A    between atoms: _409  and  _411
REMARK  172  A    between atoms: _411  and  _412
REMARK  173  A    between atoms: _411  and  _414
REMARK  174  A    between atoms: _414  and  _415
REMARK  175  A    between atoms: _418  and  _420
REMARK  176  A    between atoms: _420  and  _421
REMARK  177  A    between atoms: _423  and  _425
REMARK  178  A    between atoms: _425  and  _426
REMARK  179  A    between atoms: _428  and  _430
REMARK  180  A    between atoms: _430  and  _431
REMARK  181  A    between atoms: _430  and  _433
REMARK  182  A    between atoms: _433  and  _434
REMARK  183  A    between atoms: _437  and  _439
REMARK  184  A    between atoms: _439  and  _440
REMARK  185  A    between atoms: _442  and  _444
REMARK  186  A    between atoms: _444  and  _445
REMARK  187  A    between atoms: _447  and  _449
REMARK  188  A    between atoms: _449  and  _450
REMARK  189  A    between atoms: _449  and  _452
REMARK  190  A    between atoms: _452  and  _453
REMARK  191  A    between atoms: _459  and  _461
REMARK  192  A    between atoms: _461  and  _462
REMARK  193  A    between atoms: _461  and  _464
REMARK  194  A    between atoms: _464  and  _465
REMARK  195  A    between atoms: _468  and  _470
REMARK  196  A    between atoms: _470  and  _471
REMARK  197  A    between atoms: _470  and  _473
REMARK  198  A    between atoms: _473  and  _474
REMARK  199  A    between atoms: _477  and  _479
REMARK  200  A    between atoms: _479  and  _480
REMARK  201  A    between atoms: _479  and  _482
REMARK  202  A    between atoms: _482  and  _483
REMARK  203  A    between atoms: _487  and  _488
REMARK  204  A    between atoms: _493  and  _495
REMARK  205  A    between atoms: _495  and  _496
REMARK  206  A    between atoms: _495  and  _498
REMARK  207  A    between atoms: _501  and  _503
REMARK  208  A    between atoms: _503  and  _504
REMARK  209  A    between atoms: _503  and  _506
REMARK  210  A    between atoms: _506  and  _507
REMARK  211  A    between atoms: _512  and  _514
REMARK  212  A    between atoms: _514  and  _515
REMARK  213  A    between atoms: _514  and  _517
REMARK  214  A    between atoms: _517  and  _518
REMARK  215  A    between atoms: _521  and  _523
REMARK  216  A    between atoms: _523  and  _524
REMARK  217  A    between atoms: _523  and  _526
REMARK  218  A    between atoms: _526  and  _527
REMARK  219  A    between atoms: _530  and  _532
REMARK  220  A    between atoms: _532  and  _533
REMARK  221  A    between atoms: _535  and  _537
REMARK  222  A    between atoms: _537  and  _538
REMARK  223  A    between atoms: _537  and  _540
REMARK  224  A    between atoms: _540  and  _541
REMARK  225  A    between atoms: _541  and  _542
REMARK  226  A    between atoms: _542  and  _543
REMARK  227  A    between atoms: _552  and  _554
REMARK  228  A    between atoms: _554  and  _555
REMARK  229  A    between atoms: _554  and  _557
REMARK  230  A    between atoms: _557  and  _558
REMARK                            x       y       z     vdW  Elec       q    Type
REMARK                         _______ _______ _______ _____ _____    ______ ____
ROOT
ATOM      1  O   HOH     1      21.653  62.104  18.241  0.00  0.00    +0.000 OA
ENDROOT
TORSDOF 0
REMARK  Name = ../refined-set-2016/3bvb/3bvb_pocket.pdb
REMARK  230 active torsions:
REMARK  status: ('A' for Active; 'I' for Inactive)
REMARK    1  A    between atoms: _1  and  _3
REMARK    2  A    between atoms: _3  and  _4
REMARK    3  A    between atoms: _3  and  _6
REMARK    4  A    between atoms: _6  and  _7
REMARK    5  A    between atoms: _7  and  _8
REMARK    6  A    between atoms: _8  and  _9
REMARK    7  A    between atoms: _18  and  _20
REMARK    8  A    between atoms: _20  and  _21
REMARK    9  A    between atoms: _20  and  _23
REMARK   10  A    between atoms: _23  and  _24
REMARK   11  A    between atoms: _27  and  _29
REMARK   12  A    between atoms: _29  and  _30
REMARK   13  A    between atoms: _29  and  _32
REMARK   14  A    between atoms: _32  and  _33
REMARK   15  A    between atoms: _36  and  _38
REMARK   16  A    between atoms: _38  and  _39
REMARK   17  A    between atoms: _38  and  _41
REMARK   18  A    between atoms: _41  and  _42
REMARK   19  A    between atoms: _47  and  _49
REMARK   20  A    between atoms: _49  and  _50
REMARK   21  A    between atoms: _49  and  _52
REMARK   22  A    between atoms: _52  and  _53
REMARK   23  A    between atoms: _56  and  _58
REMARK   24  A    between atoms: _58  and  _59
REMARK   25  A    between atoms: _61  and  _63
REMARK   26  A    between atoms: _63  and  _64
REMARK   27  A    between atoms: _67  and  _69
REMARK   28  A    between atoms: _69  and  _70
REMARK   29  A    between atoms: _69  and  _72
REMARK   30  A    between atoms: _72  and  _73
REMARK   31  A    between atoms: _76  and  _78
REMARK   32  A    between atoms: _78  and  _79
REMARK   33  A    between atoms: _78  and  _81
REMARK   34  A    between atoms: _81  and  _82
REMARK   35  A    between atoms: _85  and  _87
REMARK   36  A    between atoms: _87  and  _88
REMARK   37  A    between atoms: _87  and  _90
REMARK   38  A    between atoms: _90  and  _91
REMARK   39  A    between atoms: _94  and  _96
REMARK   40  A    between atoms: _96  and  _97
REMARK   41  A    between atoms: _96  and  _99
REMARK   42  A    between atoms: _102  and  _104
REMARK   43  A    between atoms: _104  and  _105
REMARK   44  A    between atoms: _104  and  _107
REMARK   45  A    between atoms: _107  and  _108
REMARK   46  A    between atoms: _108  and  _109
REMARK   47  A    between atoms: _109  and  _110
REMARK   48  A    between atoms: _110  and  _111
REMARK   49  A    between atoms: _115  and  _117
REMARK   50  A    between atoms: _117  and  _118
REMARK   51  A    between atoms: _117  and  _120
REMARK   52  A    between atoms: _120  and  _121
REMARK   53  A    between atoms: _121  and  _122
REMARK   54  A    between atoms: _124  and  _126
REMARK   55  A    between atoms: _126  and  _127
REMARK   56  A    between atoms: _126  and  _129
REMARK   57  A    between atoms: _129  and  _130
REMARK   58  A    between atoms: _133  and  _135
REMARK   59  A    between atoms: _135  and  _136
REMARK   60  A    between atoms: _138  and  _140
REMARK   61  A    between atoms: _140  and  _141
REMARK   62  A    between atoms: _143  and  _145
REMARK   63  A    between atoms: _145  and  _146
REMARK   64  A    between atoms: _145  and  _148
REMARK   65  A    between atoms: _148  and  _149
REMARK   66  A    between atoms: _152  and  _154
REMARK   67  A    between atoms: _154  and  _155
REMARK   68  A    between atoms: _157  and  _159
REMARK   69  A    between atoms: _159  and  _160
REMARK   70  A    between atoms: _162  and  _164
REMARK   71  A    between atoms: _164  and  _165
REMARK   72  A    between atoms: _164  and  _167
REMARK   73  A    between atoms: _167  and  _168
REMARK   74  A    between atoms: _174  and  _176
REMARK   75  A    between atoms: _176  and  _177
REMARK   76  A    between atoms: _176  and  _179
REMARK   77  A    between atoms: _179  and  _180
REMARK   78  A    between atoms: _183  and  _185
REMARK   79  A    between atoms: _185  and  _186
REMARK   80  A    between atoms: _185  and  _188
REMARK   81  A    between atoms: _191  and  _193
REMARK   82  A    between atoms: _193  and  _194
REMARK   83  A    between atoms: _193  and  _196
REMARK   84  A    between atoms: _196  and  _197
REMARK   85  A    between atoms: _200  and  _202
REMARK   86  A    between atoms: _202  and  _203
REMARK   87  A    between atoms: _202  and  _205
REMARK   88  A    between atoms: _205  and  _206
REMARK   89  A    between atoms: _210  and  _211
REMARK   90  A    between atoms: _216  and  _218
REMARK   91  A    between atoms: _218  and  _219
REMARK   92  A    between atoms: _218  and  _221
REMARK   93  A    between atoms: _224  and  _226
REMARK   94  A    between atoms: _226  and  _227
REMARK   95  A    between atoms: _226  and  _229
REMARK   96  A    between atoms: _229  and  _230
REMARK   97  A    between atoms: _235  and  _237
REMARK   98  A    between atoms: _237  and  _238
REMARK   99  A    between atoms: _237  and  _240
REMARK  100  A    between atoms: _240  and  _241
REMARK  101  A    between atoms: _240  and  _242
REMARK  102  A    between atoms: _244  and  _246
REMARK  103  A    between atoms: _246  and  _247
REMARK  104  A    between atoms: _246  and  _249
REMARK  105  A    between atoms: _249  and  _250
REMARK  106  A    between atoms: _253  and  _255
REMARK  107  A    between atoms: _255  and  _256
REMARK  108  A    between atoms: _258  and  _260
REMARK  109  A    between atoms: _260  and  _261
REMARK  110  A    between atoms: _260  and  _263
REMARK  111  A    between atoms: _263  and  _264
REMARK  112  A    between atoms: _264  and  _265
REMARK  113  A    between atoms: _265  and  _266
REMARK  114  A    between atoms: _275  and  _277
REMARK  115  A    between atoms: _277  and  _278
REMARK  116  A    between atoms: _277  and  _280
REMARK  117  A    between atoms: _280  and  _281
REMARK  118  A    between atoms: _286  and  _288
REMARK  119  A    between atoms: _288  and  _289
REMARK  120  A    between atoms: _288  and  _291
REMARK  121  A    between atoms: _291  and  _292
REMARK  122  A    between atoms: _292  and  _293
REMARK  123  A    between atoms: _293  and  _294
REMARK  124  A    between atoms: _303  and  _305
REMARK  125  A    between atoms: _305  and  _306
REMARK  126  A    between atoms: _305  and  _308
REMARK  127  A    between atoms: _308  and  _309
REMARK  128  A    between atoms: _312  and  _314
REMARK  129  A    between atoms: _314  and  _315
REMARK  130  A    between atoms: _314  and  _317
REMARK  131  A    between atoms: _317  and  _318
REMARK  132  A    between atoms: _321  and  _323
REMARK  133  A    between atoms: _323  and  _324
REMARK  134  A    between atoms: _323  and  _326
REMARK  135  A    between atoms: _326  and  _327
REMARK  136  A    between atoms: _332  and  _334
REMARK  137  A    between atoms: _334  and  _335
REMARK  138  A    between atoms: _334  and  _337
REMARK  139  A    between atoms: _337  and  _338
REMARK  140  A    between atoms: _341  and  _343
REMARK  141  A    between atoms: _343  and  _344
REMARK  142  A    between atoms: _346  and  _348
REMARK  143  A    between atoms: _348  and  _349
REMARK  144  A    between atoms: _352  and  _354
REMARK  145  A    between atoms: _354  and  _355
REMARK  146  A    between atoms: _354  and  _357
REMARK  147  A    between atoms: _357  and  _358
REMARK  148  A    between atoms: _361  and  _363
REMARK  149  A    between atoms: _363  and  _364
REMARK  150  A    between atoms: _363  and  _366
REMARK  151  A    between atoms: _366  and  _367
REMARK  152  A    between atoms: _370  and  _372
REMARK  153  A    between atoms: _372  and  _373
REMARK  154  A    between atoms: _372  and  _375
REMARK  155  A    between atoms: _375  and  _376
REMARK  156  A    between atoms: _379  and  _381
REMARK  157  A    between atoms: _381  and  _382
REMARK  158  A    between atoms: _381  and  _384
REMARK  159  A    between atoms: _387  and  _389
REMARK  160  A    between atoms: _389  and  _390
REMARK  161  A    between atoms: _389  and  _392
REMARK  162  A    between atoms: _392  and  _393
REMARK  163  A    between atoms: _393  and  _394
REMARK  164  A    between atoms: _394  and  _395
REMARK  165  A    between atoms: _395  and  _396
REMARK  166  A    between atoms: _400  and  _402
REMARK  167  A    between atoms: _402  and  _403
REMARK  168  A    between atoms: _402  and  _405
REMARK  169  A    between atoms: _405  and  _406
REMARK  170  A    between atoms: _406  and  _407
REMARK  171  A    between atoms: _409  and  _411
REMARK  172  A    between atoms: _411  and  _412
REMARK  173  A    between atoms: _411  and  _414
REMARK  174  A    between atoms: _414  and  _415
REMARK  175  A    between atoms: _418  and  _420
REMARK  176  A    between atoms: _420  and  _421
REMARK  177  A    between atoms: _423  and  _425
REMARK  178  A    between atoms: _425  and  _426
REMARK  179  A    between atoms: _428  and  _430
REMARK  180  A    between atoms: _430  and  _431
REMARK  181  A    between atoms: _430  and  _433
REMARK  182  A    between atoms: _433  and  _434
REMARK  183  A    between atoms: _437  and  _439
REMARK  184  A    between atoms: _439  and  _440
REMARK  185  A    between atoms: _442  and  _444
REMARK  186  A    between atoms: _444  and  _445
REMARK  187  A    between atoms: _447  and  _449
REMARK  188  A    between atoms: _449  and  _450
REMARK  189  A    between atoms: _449  and  _452
REMARK  190  A    between atoms: _452  and  _453
REMARK  191  A    between atoms: _459  and  _461
REMARK  192  A    between atoms: _461  and  _462
REMARK  193  A    between atoms: _461  and  _464
REMARK  194  A    between atoms: _464  and  _465
REMARK  195  A    between atoms: _468  and  _470
REMARK  196  A    between atoms: _470  and  _471
REMARK  197  A    between atoms: _470  and  _473
REMARK  198  A    between atoms: _473  and  _474
REMARK  199  A    between atoms: _477  and  _479
REMARK  200  A    between atoms: _479  and  _480
REMARK  201  A    between atoms: _479  and  _482
REMARK  202  A    between atoms: _482  and  _483
REMARK  203  A    between atoms: _487  and  _488
REMARK  204  A    between atoms: _493  and  _495
REMARK  205  A    between atoms: _495  and  _496
REMARK  206  A    between atoms: _495  and  _498
REMARK  207  A    between atoms: _501  and  _503
REMARK  208  A    between atoms: _503  and  _504
REMARK  209  A    between atoms: _503  and  _506
REMARK  210  A    between atoms: _506  and  _507
REMARK  211  A    between atoms: _512  and  _514
REMARK  212  A    between atoms: _514  and  _515
REMARK  213  A    between atoms: _514  and  _517
REMARK  214  A    between atoms: _517  and  _518
REMARK  215  A    between atoms: _521  and  _523
REMARK  216  A    between atoms: _523  and  _524
REMARK  217  A    between atoms: _523  and  _526
REMARK  218  A    between atoms: _526  and  _527
REMARK  219  A    between atoms: _530  and  _532
REMARK  220  A    between atoms: _532  and  _533
REMARK  221  A    between atoms: _535  and  _537
REMARK  222  A    between atoms: _537  and  _538
REMARK  223  A    between atoms: _537  and  _540
REMARK  224  A    between atoms: _540  and  _541
REMARK  225  A    between atoms: _541  and  _542
REMARK  226  A    between atoms: _542  and  _543
REMARK  227  A    between atoms: _552  and  _554
REMARK  228  A    between atoms: _554  and  _555
REMARK  229  A    between atoms: _554  and  _557
REMARK  230  A    between atoms: _557  and  _558
REMARK                            x       y       z     vdW  Elec       q    Type
REMARK                         _______ _______ _______ _____ _____    ______ ____
ROOT
ATOM      1  O   HOH     1      13.649  70.361  11.784  0.00  0.00    +0.000 OA
ENDROOT
TORSDOF 0
REMARK  Name = ../refined-set-2016/3bvb/3bvb_pocket.pdb
REMARK  230 active torsions:
REMARK  status: ('A' for Active; 'I' for Inactive)
REMARK    1  A    between atoms: _1  and  _3
REMARK    2  A    between atoms: _3  and  _4
REMARK    3  A    between atoms: _3  and  _6
REMARK    4  A    between atoms: _6  and  _7
REMARK    5  A    between atoms: _7  and  _8
REMARK    6  A    between atoms: _8  and  _9
REMARK    7  A    between atoms: _18  and  _20
REMARK    8  A    between atoms: _20  and  _21
REMARK    9  A    between atoms: _20  and  _23
REMARK   10  A    between atoms: _23  and  _24
REMARK   11  A    between atoms: _27  and  _29
REMARK   12  A    between atoms: _29  and  _30
REMARK   13  A    between atoms: _29  and  _32
REMARK   14  A    between atoms: _32  and  _33
REMARK   15  A    between atoms: _36  and  _38
REMARK   16  A    between atoms: _38  and  _39
REMARK   17  A    between atoms: _38  and  _41
REMARK   18  A    between atoms: _41  and  _42
REMARK   19  A    between atoms: _47  and  _49
REMARK   20  A    between atoms: _49  and  _50
REMARK   21  A    between atoms: _49  and  _52
REMARK   22  A    between atoms: _52  and  _53
REMARK   23  A    between atoms: _56  and  _58
REMARK   24  A    between atoms: _58  and  _59
REMARK   25  A    between atoms: _61  and  _63
REMARK   26  A    between atoms: _63  and  _64
REMARK   27  A    between atoms: _67  and  _69
REMARK   28  A    between atoms: _69  and  _70
REMARK   29  A    between atoms: _69  and  _72
REMARK   30  A    between atoms: _72  and  _73
REMARK   31  A    between atoms: _76  and  _78
REMARK   32  A    between atoms: _78  and  _79
REMARK   33  A    between atoms: _78  and  _81
REMARK   34  A    between atoms: _81  and  _82
REMARK   35  A    between atoms: _85  and  _87
REMARK   36  A    between atoms: _87  and  _88
REMARK   37  A    between atoms: _87  and  _90
REMARK   38  A    between atoms: _90  and  _91
REMARK   39  A    between atoms: _94  and  _96
REMARK   40  A    between atoms: _96  and  _97
REMARK   41  A    between atoms: _96  and  _99
REMARK   42  A    between atoms: _102  and  _104
REMARK   43  A    between atoms: _104  and  _105
REMARK   44  A    between atoms: _104  and  _107
REMARK   45  A    between atoms: _107  and  _108
REMARK   46  A    between atoms: _108  and  _109
REMARK   47  A    between atoms: _109  and  _110
REMARK   48  A    between atoms: _110  and  _111
REMARK   49  A    between atoms: _115  and  _117
REMARK   50  A    between atoms: _117  and  _118
REMARK   51  A    between atoms: _117  and  _120
REMARK   52  A    between atoms: _120  and  _121
REMARK   53  A    between atoms: _121  and  _122
REMARK   54  A    between atoms: _124  and  _126
REMARK   55  A    between atoms: _126  and  _127
REMARK   56  A    between atoms: _126  and  _129
REMARK   57  A    between atoms: _129  and  _130
REMARK   58  A    between atoms: _133  and  _135
REMARK   59  A    between atoms: _135  and  _136
REMARK   60  A    between atoms: _138  and  _140
REMARK   61  A    between atoms: _140  and  _141
REMARK   62  A    between atoms: _143  and  _145
REMARK   63  A    between atoms: _145  and  _146
REMARK   64  A    between atoms: _145  and  _148
REMARK   65  A    between atoms: _148  and  _149
REMARK   66  A    between atoms: _152  and  _154
REMARK   67  A    between atoms: _154  and  _155
REMARK   68  A    between atoms: _157  and  _159
REMARK   69  A    between atoms: _159  and  _160
REMARK   70  A    between atoms: _162  and  _164
REMARK   71  A    between atoms: _164  and  _165
REMARK   72  A    between atoms: _164  and  _167
REMARK   73  A    between atoms: _167  and  _168
REMARK   74  A    between atoms: _174  and  _176
REMARK   75  A    between atoms: _176  and  _177
REMARK   76  A    between atoms: _176  and  _179
REMARK   77  A    between atoms: _179  and  _180
REMARK   78  A    between atoms: _183  and  _185
REMARK   79  A    between atoms: _185  and  _186
REMARK   80  A    between atoms: _185  and  _188
REMARK   81  A    between atoms: _191  and  _193
REMARK   82  A    between atoms: _193  and  _194
REMARK   83  A    between atoms: _193  and  _196
REMARK   84  A    between atoms: _196  and  _197
REMARK   85  A    between atoms: _200  and  _202
REMARK   86  A    between atoms: _202  and  _203
REMARK   87  A    between atoms: _202  and  _205
REMARK   88  A    between atoms: _205  and  _206
REMARK   89  A    between atoms: _210  and  _211
REMARK   90  A    between atoms: _216  and  _218
REMARK   91  A    between atoms: _218  and  _219
REMARK   92  A    between atoms: _218  and  _221
REMARK   93  A    between atoms: _224  and  _226
REMARK   94  A    between atoms: _226  and  _227
REMARK   95  A    between atoms: _226  and  _229
REMARK   96  A    between atoms: _229  and  _230
REMARK   97  A    between atoms: _235  and  _237
REMARK   98  A    between atoms: _237  and  _238
REMARK   99  A    between atoms: _237  and  _240
REMARK  100  A    between atoms: _240  and  _241
REMARK  101  A    between atoms: _240  and  _242
REMARK  102  A    between atoms: _244  and  _246
REMARK  103  A    between atoms: _246  and  _247
REMARK  104  A    between atoms: _246  and  _249
REMARK  105  A    between atoms: _249  and  _250
REMARK  106  A    between atoms: _253  and  _255
REMARK  107  A    between atoms: _255  and  _256
REMARK  108  A    between atoms: _258  and  _260
REMARK  109  A    between atoms: _260  and  _261
REMARK  110  A    between atoms: _260  and  _263
REMARK  111  A    between atoms: _263  and  _264
REMARK  112  A    between atoms: _264  and  _265
REMARK  113  A    between atoms: _265  and  _266
REMARK  114  A    between atoms: _275  and  _277
REMARK  115  A    between atoms: _277  and  _278
REMARK  116  A    between atoms: _277  and  _280
REMARK  117  A    between atoms: _280  and  _281
REMARK  118  A    between atoms: _286  and  _288
REMARK  119  A    between atoms: _288  and  _289
REMARK  120  A    between atoms: _288  and  _291
REMARK  121  A    between atoms: _291  and  _292
REMARK  122  A    between atoms: _292  and  _293
REMARK  123  A    between atoms: _293  and  _294
REMARK  124  A    between atoms: _303  and  _305
REMARK  125  A    between atoms: _305  and  _306
REMARK  126  A    between atoms: _305  and  _308
REMARK  127  A    between atoms: _308  and  _309
REMARK  128  A    between atoms: _312  and  _314
REMARK  129  A    between atoms: _314  and  _315
REMARK  130  A    between atoms: _314  and  _317
REMARK  131  A    between atoms: _317  and  _318
REMARK  132  A    between atoms: _321  and  _323
REMARK  133  A    between atoms: _323  and  _324
REMARK  134  A    between atoms: _323  and  _326
REMARK  135  A    between atoms: _326  and  _327
REMARK  136  A    between atoms: _332  and  _334
REMARK  137  A    between atoms: _334  and  _335
REMARK  138  A    between atoms: _334  and  _337
REMARK  139  A    between atoms: _337  and  _338
REMARK  140  A    between atoms: _341  and  _343
REMARK  141  A    between atoms: _343  and  _344
REMARK  142  A    between atoms: _346  and  _348
REMARK  143  A    between atoms: _348  and  _349
REMARK  144  A    between atoms: _352  and  _354
REMARK  145  A    between atoms: _354  and  _355
REMARK  146  A    between atoms: _354  and  _357
REMARK  147  A    between atoms: _357  and  _358
REMARK  148  A    between atoms: _361  and  _363
REMARK  149  A    between atoms: _363  and  _364
REMARK  150  A    between atoms: _363  and  _366
REMARK  151  A    between atoms: _366  and  _367
REMARK  152  A    between atoms: _370  and  _372
REMARK  153  A    between atoms: _372  and  _373
REMARK  154  A    between atoms: _372  and  _375
REMARK  155  A    between atoms: _375  and  _376
REMARK  156  A    between atoms: _379  and  _381
REMARK  157  A    between atoms: _381  and  _382
REMARK  158  A    between atoms: _381  and  _384
REMARK  159  A    between atoms: _387  and  _389
REMARK  160  A    between atoms: _389  and  _390
REMARK  161  A    between atoms: _389  and  _392
REMARK  162  A    between atoms: _392  and  _393
REMARK  163  A    between atoms: _393  and  _394
REMARK  164  A    between atoms: _394  and  _395
REMARK  165  A    between atoms: _395  and  _396
REMARK  166  A    between atoms: _400  and  _402
REMARK  167  A    between atoms: _402  and  _403
REMARK  168  A    between atoms: _402  and  _405
REMARK  169  A    between atoms: _405  and  _406
REMARK  170  A    between atoms: _406  and  _407
REMARK  171  A    between atoms: _409  and  _411
REMARK  172  A    between atoms: _411  and  _412
REMARK  173  A    between atoms: _411  and  _414
REMARK  174  A    between atoms: _414  and  _415
REMARK  175  A    between atoms: _418  and  _420
REMARK  176  A    between atoms: _420  and  _421
REMARK  177  A    between atoms: _423  and  _425
REMARK  178  A    between atoms: _425  and  _426
REMARK  179  A    between atoms: _428  and  _430
REMARK  180  A    between atoms: _430  and  _431
REMARK  181  A    between atoms: _430  and  _433
REMARK  182  A    between atoms: _433  and  _434
REMARK  183  A    between atoms: _437  and  _439
REMARK  184  A    between atoms: _439  and  _440
REMARK  185  A    between atoms: _442  and  _444
REMARK  186  A    between atoms: _444  and  _445
REMARK  187  A    between atoms: _447  and  _449
REMARK  188  A    between atoms: _449  and  _450
REMARK  189  A    between atoms: _449  and  _452
REMARK  190  A    between atoms: _452  and  _453
REMARK  191  A    between atoms: _459  and  _461
REMARK  192  A    between atoms: _461  and  _462
REMARK  193  A    between atoms: _461  and  _464
REMARK  194  A    between atoms: _464  and  _465
REMARK  195  A    between atoms: _468  and  _470
REMARK  196  A    between atoms: _470  and  _471
REMARK  197  A    between atoms: _470  and  _473
REMARK  198  A    between atoms: _473  and  _474
REMARK  199  A    between atoms: _477  and  _479
REMARK  200  A    between atoms: _479  and  _480
REMARK  201  A    between atoms: _479  and  _482
REMARK  202  A    between atoms: _482  and  _483
REMARK  203  A    between atoms: _487  and  _488
REMARK  204  A    between atoms: _493  and  _495
REMARK  205  A    between atoms: _495  and  _496
REMARK  206  A    between atoms: _495  and  _498
REMARK  207  A    between atoms: _501  and  _503
REMARK  208  A    between atoms: _503  and  _504
REMARK  209  A    between atoms: _503  and  _506
REMARK  210  A    between atoms: _506  and  _507
REMARK  211  A    between atoms: _512  and  _514
REMARK  212  A    between atoms: _514  and  _515
REMARK  213  A    between atoms: _514  and  _517
REMARK  214  A    between atoms: _517  and  _518
REMARK  215  A    between atoms: _521  and  _523
REMARK  216  A    between atoms: _523  and  _524
REMARK  217  A    between atoms: _523  and  _526
REMARK  218  A    between atoms: _526  and  _527
REMARK  219  A    between atoms: _530  and  _532
REMARK  220  A    between atoms: _532  and  _533
REMARK  221  A    between atoms: _535  and  _537
REMARK  222  A    between atoms: _537  and  _538
REMARK  223  A    between atoms: _537  and  _540
REMARK  224  A    between atoms: _540  and  _541
REMARK  225  A    between atoms: _541  and  _542
REMARK  226  A    between atoms: _542  and  _543
REMARK  227  A    between atoms: _552  and  _554
REMARK  228  A    between atoms: _554  and  _555
REMARK  229  A    between atoms: _554  and  _557
REMARK  230  A    between atoms: _557  and  _558
REMARK                            x       y       z     vdW  Elec       q    Type
REMARK                         _______ _______ _______ _____ _____    ______ ____
ROOT
ATOM      1  O   HOH     1      10.992  65.421  16.602  0.00  0.00    +0.000 OA
ENDROOT
TORSDOF 0
REMARK  Name = ../refined-set-2016/3bvb/3bvb_pocket.pdb
REMARK  230 active torsions:
REMARK  status: ('A' for Active; 'I' for Inactive)
REMARK    1  A    between atoms: _1  and  _3
REMARK    2  A    between atoms: _3  and  _4
REMARK    3  A    between atoms: _3  and  _6
REMARK    4  A    between atoms: _6  and  _7
REMARK    5  A    between atoms: _7  and  _8
REMARK    6  A    between atoms: _8  and  _9
REMARK    7  A    between atoms: _18  and  _20
REMARK    8  A    between atoms: _20  and  _21
REMARK    9  A    between atoms: _20  and  _23
REMARK   10  A    between atoms: _23  and  _24
REMARK   11  A    between atoms: _27  and  _29
REMARK   12  A    between atoms: _29  and  _30
REMARK   13  A    between atoms: _29  and  _32
REMARK   14  A    between atoms: _32  and  _33
REMARK   15  A    between atoms: _36  and  _38
REMARK   16  A    between atoms: _38  and  _39
REMARK   17  A    between atoms: _38  and  _41
REMARK   18  A    between atoms: _41  and  _42
REMARK   19  A    between atoms: _47  and  _49
REMARK   20  A    between atoms: _49  and  _50
REMARK   21  A    between atoms: _49  and  _52
REMARK   22  A    between atoms: _52  and  _53
REMARK   23  A    between atoms: _56  and  _58
REMARK   24  A    between atoms: _58  and  _59
REMARK   25  A    between atoms: _61  and  _63
REMARK   26  A    between atoms: _63  and  _64
REMARK   27  A    between atoms: _67  and  _69
REMARK   28  A    between atoms: _69  and  _70
REMARK   29  A    between atoms: _69  and  _72
REMARK   30  A    between atoms: _72  and  _73
REMARK   31  A    between atoms: _76  and  _78
REMARK   32  A    between atoms: _78  and  _79
REMARK   33  A    between atoms: _78  and  _81
REMARK   34  A    between atoms: _81  and  _82
REMARK   35  A    between atoms: _85  and  _87
REMARK   36  A    between atoms: _87  and  _88
REMARK   37  A    between atoms: _87  and  _90
REMARK   38  A    between atoms: _90  and  _91
REMARK   39  A    between atoms: _94  and  _96
REMARK   40  A    between atoms: _96  and  _97
REMARK   41  A    between atoms: _96  and  _99
REMARK   42  A    between atoms: _102  and  _104
REMARK   43  A    between atoms: _104  and  _105
REMARK   44  A    between atoms: _104  and  _107
REMARK   45  A    between atoms: _107  and  _108
REMARK   46  A    between atoms: _108  and  _109
REMARK   47  A    between atoms: _109  and  _110
REMARK   48  A    between atoms: _110  and  _111
REMARK   49  A    between atoms: _115  and  _117
REMARK   50  A    between atoms: _117  and  _118
REMARK   51  A    between atoms: _117  and  _120
REMARK   52  A    between atoms: _120  and  _121
REMARK   53  A    between atoms: _121  and  _122
REMARK   54  A    between atoms: _124  and  _126
REMARK   55  A    between atoms: _126  and  _127
REMARK   56  A    between atoms: _126  and  _129
REMARK   57  A    between atoms: _129  and  _130
REMARK   58  A    between atoms: _133  and  _135
REMARK   59  A    between atoms: _135  and  _136
REMARK   60  A    between atoms: _138  and  _140
REMARK   61  A    between atoms: _140  and  _141
REMARK   62  A    between atoms: _143  and  _145
REMARK   63  A    between atoms: _145  and  _146
REMARK   64  A    between atoms: _145  and  _148
REMARK   65  A    between atoms: _148  and  _149
REMARK   66  A    between atoms: _152  and  _154
REMARK   67  A    between atoms: _154  and  _155
REMARK   68  A    between atoms: _157  and  _159
REMARK   69  A    between atoms: _159  and  _160
REMARK   70  A    between atoms: _162  and  _164
REMARK   71  A    between atoms: _164  and  _165
REMARK   72  A    between atoms: _164  and  _167
REMARK   73  A    between atoms: _167  and  _168
REMARK   74  A    between atoms: _174  and  _176
REMARK   75  A    between atoms: _176  and  _177
REMARK   76  A    between atoms: _176  and  _179
REMARK   77  A    between atoms: _179  and  _180
REMARK   78  A    between atoms: _183  and  _185
REMARK   79  A    between atoms: _185  and  _186
REMARK   80  A    between atoms: _185  and  _188
REMARK   81  A    between atoms: _191  and  _193
REMARK   82  A    between atoms: _193  and  _194
REMARK   83  A    between atoms: _193  and  _196
REMARK   84  A    between atoms: _196  and  _197
REMARK   85  A    between atoms: _200  and  _202
REMARK   86  A    between atoms: _202  and  _203
REMARK   87  A    between atoms: _202  and  _205
REMARK   88  A    between atoms: _205  and  _206
REMARK   89  A    between atoms: _210  and  _211
REMARK   90  A    between atoms: _216  and  _218
REMARK   91  A    between atoms: _218  and  _219
REMARK   92  A    between atoms: _218  and  _221
REMARK   93  A    between atoms: _224  and  _226
REMARK   94  A    between atoms: _226  and  _227
REMARK   95  A    between atoms: _226  and  _229
REMARK   96  A    between atoms: _229  and  _230
REMARK   97  A    between atoms: _235  and  _237
REMARK   98  A    between atoms: _237  and  _238
REMARK   99  A    between atoms: _237  and  _240
REMARK  100  A    between atoms: _240  and  _241
REMARK  101  A    between atoms: _240  and  _242
REMARK  102  A    between atoms: _244  and  _246
REMARK  103  A    between atoms: _246  and  _247
REMARK  104  A    between atoms: _246  and  _249
REMARK  105  A    between atoms: _249  and  _250
REMARK  106  A    between atoms: _253  and  _255
REMARK  107  A    between atoms: _255  and  _256
REMARK  108  A    between atoms: _258  and  _260
REMARK  109  A    between atoms: _260  and  _261
REMARK  110  A    between atoms: _260  and  _263
REMARK  111  A    between atoms: _263  and  _264
REMARK  112  A    between atoms: _264  and  _265
REMARK  113  A    between atoms: _265  and  _266
REMARK  114  A    between atoms: _275  and  _277
REMARK  115  A    between atoms: _277  and  _278
REMARK  116  A    between atoms: _277  and  _280
REMARK  117  A    between atoms: _280  and  _281
REMARK  118  A    between atoms: _286  and  _288
REMARK  119  A    between atoms: _288  and  _289
REMARK  120  A    between atoms: _288  and  _291
REMARK  121  A    between atoms: _291  and  _292
REMARK  122  A    between atoms: _292  and  _293
REMARK  123  A    between atoms: _293  and  _294
REMARK  124  A    between atoms: _303  and  _305
REMARK  125  A    between atoms: _305  and  _306
REMARK  126  A    between atoms: _305  and  _308
REMARK  127  A    between atoms: _308  and  _309
REMARK  128  A    between atoms: _312  and  _314
REMARK  129  A    between atoms: _314  and  _315
REMARK  130  A    between atoms: _314  and  _317
REMARK  131  A    between atoms: _317  and  _318
REMARK  132  A    between atoms: _321  and  _323
REMARK  133  A    between atoms: _323  and  _324
REMARK  134  A    between atoms: _323  and  _326
REMARK  135  A    between atoms: _326  and  _327
REMARK  136  A    between atoms: _332  and  _334
REMARK  137  A    between atoms: _334  and  _335
REMARK  138  A    between atoms: _334  and  _337
REMARK  139  A    between atoms: _337  and  _338
REMARK  140  A    between atoms: _341  and  _343
REMARK  141  A    between atoms: _343  and  _344
REMARK  142  A    between atoms: _346  and  _348
REMARK  143  A    between atoms: _348  and  _349
REMARK  144  A    between atoms: _352  and  _354
REMARK  145  A    between atoms: _354  and  _355
REMARK  146  A    between atoms: _354  and  _357
REMARK  147  A    between atoms: _357  and  _358
REMARK  148  A    between atoms: _361  and  _363
REMARK  149  A    between atoms: _363  and  _364
REMARK  150  A    between atoms: _363  and  _366
REMARK  151  A    between atoms: _366  and  _367
REMARK  152  A    between atoms: _370  and  _372
REMARK  153  A    between atoms: _372  and  _373
REMARK  154  A    between atoms: _372  and  _375
REMARK  155  A    between atoms: _375  and  _376
REMARK  156  A    between atoms: _379  and  _381
REMARK  157  A    between atoms: _381  and  _382
REMARK  158  A    between atoms: _381  and  _384
REMARK  159  A    between atoms: _387  and  _389
REMARK  160  A    between atoms: _389  and  _390
REMARK  161  A    between atoms: _389  and  _392
REMARK  162  A    between atoms: _392  and  _393
REMARK  163  A    between atoms: _393  and  _394
REMARK  164  A    between atoms: _394  and  _395
REMARK  165  A    between atoms: _395  and  _396
REMARK  166  A    between atoms: _400  and  _402
REMARK  167  A    between atoms: _402  and  _403
REMARK  168  A    between atoms: _402  and  _405
REMARK  169  A    between atoms: _405  and  _406
REMARK  170  A    between atoms: _406  and  _407
REMARK  171  A    between atoms: _409  and  _411
REMARK  172  A    between atoms: _411  and  _412
REMARK  173  A    between atoms: _411  and  _414
REMARK  174  A    between atoms: _414  and  _415
REMARK  175  A    between atoms: _418  and  _420
REMARK  176  A    between atoms: _420  and  _421
REMARK  177  A    between atoms: _423  and  _425
REMARK  178  A    between atoms: _425  and  _426
REMARK  179  A    between atoms: _428  and  _430
REMARK  180  A    between atoms: _430  and  _431
REMARK  181  A    between atoms: _430  and  _433
REMARK  182  A    between atoms: _433  and  _434
REMARK  183  A    between atoms: _437  and  _439
REMARK  184  A    between atoms: _439  and  _440
REMARK  185  A    between atoms: _442  and  _444
REMARK  186  A    between atoms: _444  and  _445
REMARK  187  A    between atoms: _447  and  _449
REMARK  188  A    between atoms: _449  and  _450
REMARK  189  A    between atoms: _449  and  _452
REMARK  190  A    between atoms: _452  and  _453
REMARK  191  A    between atoms: _459  and  _461
REMARK  192  A    between atoms: _461  and  _462
REMARK  193  A    between atoms: _461  and  _464
REMARK  194  A    between atoms: _464  and  _465
REMARK  195  A    between atoms: _468  and  _470
REMARK  196  A    between atoms: _470  and  _471
REMARK  197  A    between atoms: _470  and  _473
REMARK  198  A    between atoms: _473  and  _474
REMARK  199  A    between atoms: _477  and  _479
REMARK  200  A    between atoms: _479  and  _480
REMARK  201  A    between atoms: _479  and  _482
REMARK  202  A    between atoms: _482  and  _483
REMARK  203  A    between atoms: _487  and  _488
REMARK  204  A    between atoms: _493  and  _495
REMARK  205  A    between atoms: _495  and  _496
REMARK  206  A    between atoms: _495  and  _498
REMARK  207  A    between atoms: _501  and  _503
REMARK  208  A    between atoms: _503  and  _504
REMARK  209  A    between atoms: _503  and  _506
REMARK  210  A    between atoms: _506  and  _507
REMARK  211  A    between atoms: _512  and  _514
REMARK  212  A    between atoms: _514  and  _515
REMARK  213  A    between atoms: _514  and  _517
REMARK  214  A    between atoms: _517  and  _518
REMARK  215  A    between atoms: _521  and  _523
REMARK  216  A    between atoms: _523  and  _524
REMARK  217  A    between atoms: _523  and  _526
REMARK  218  A    between atoms: _526  and  _527
REMARK  219  A    between atoms: _530  and  _532
REMARK  220  A    between atoms: _532  and  _533
REMARK  221  A    between atoms: _535  and  _537
REMARK  222  A    between atoms: _537  and  _538
REMARK  223  A    between atoms: _537  and  _540
REMARK  224  A    between atoms: _540  and  _541
REMARK  225  A    between atoms: _541  and  _542
REMARK  226  A    between atoms: _542  and  _543
REMARK  227  A    between atoms: _552  and  _554
REMARK  228  A    between atoms: _554  and  _555
REMARK  229  A    between atoms: _554  and  _557
REMARK  230  A    between atoms: _557  and  _558
REMARK                            x       y       z     vdW  Elec       q    Type
REMARK                         _______ _______ _______ _____ _____    ______ ____
ROOT
ATOM      1  O   HOH     1      19.789  69.895  26.621  0.00  0.00    +0.000 OA
ENDROOT
TORSDOF 0
REMARK  Name = ../refined-set-2016/3bvb/3bvb_pocket.pdb
REMARK  230 active torsions:
REMARK  status: ('A' for Active; 'I' for Inactive)
REMARK    1  A    between atoms: _1  and  _3
REMARK    2  A    between atoms: _3  and  _4
REMARK    3  A    between atoms: _3  and  _6
REMARK    4  A    between atoms: _6  and  _7
REMARK    5  A    between atoms: _7  and  _8
REMARK    6  A    between atoms: _8  and  _9
REMARK    7  A    between atoms: _18  and  _20
REMARK    8  A    between atoms: _20  and  _21
REMARK    9  A    between atoms: _20  and  _23
REMARK   10  A    between atoms: _23  and  _24
REMARK   11  A    between atoms: _27  and  _29
REMARK   12  A    between atoms: _29  and  _30
REMARK   13  A    between atoms: _29  and  _32
REMARK   14  A    between atoms: _32  and  _33
REMARK   15  A    between atoms: _36  and  _38
REMARK   16  A    between atoms: _38  and  _39
REMARK   17  A    between atoms: _38  and  _41
REMARK   18  A    between atoms: _41  and  _42
REMARK   19  A    between atoms: _47  and  _49
REMARK   20  A    between atoms: _49  and  _50
REMARK   21  A    between atoms: _49  and  _52
REMARK   22  A    between atoms: _52  and  _53
REMARK   23  A    between atoms: _56  and  _58
REMARK   24  A    between atoms: _58  and  _59
REMARK   25  A    between atoms: _61  and  _63
REMARK   26  A    between atoms: _63  and  _64
REMARK   27  A    between atoms: _67  and  _69
REMARK   28  A    between atoms: _69  and  _70
REMARK   29  A    between atoms: _69  and  _72
REMARK   30  A    between atoms: _72  and  _73
REMARK   31  A    between atoms: _76  and  _78
REMARK   32  A    between atoms: _78  and  _79
REMARK   33  A    between atoms: _78  and  _81
REMARK   34  A    between atoms: _81  and  _82
REMARK   35  A    between atoms: _85  and  _87
REMARK   36  A    between atoms: _87  and  _88
REMARK   37  A    between atoms: _87  and  _90
REMARK   38  A    between atoms: _90  and  _91
REMARK   39  A    between atoms: _94  and  _96
REMARK   40  A    between atoms: _96  and  _97
REMARK   41  A    between atoms: _96  and  _99
REMARK   42  A    between atoms: _102  and  _104
REMARK   43  A    between atoms: _104  and  _105
REMARK   44  A    between atoms: _104  and  _107
REMARK   45  A    between atoms: _107  and  _108
REMARK   46  A    between atoms: _108  and  _109
REMARK   47  A    between atoms: _109  and  _110
REMARK   48  A    between atoms: _110  and  _111
REMARK   49  A    between atoms: _115  and  _117
REMARK   50  A    between atoms: _117  and  _118
REMARK   51  A    between atoms: _117  and  _120
REMARK   52  A    between atoms: _120  and  _121
REMARK   53  A    between atoms: _121  and  _122
REMARK   54  A    between atoms: _124  and  _126
REMARK   55  A    between atoms: _126  and  _127
REMARK   56  A    between atoms: _126  and  _129
REMARK   57  A    between atoms: _129  and  _130
REMARK   58  A    between atoms: _133  and  _135
REMARK   59  A    between atoms: _135  and  _136
REMARK   60  A    between atoms: _138  and  _140
REMARK   61  A    between atoms: _140  and  _141
REMARK   62  A    between atoms: _143  and  _145
REMARK   63  A    between atoms: _145  and  _146
REMARK   64  A    between atoms: _145  and  _148
REMARK   65  A    between atoms: _148  and  _149
REMARK   66  A    between atoms: _152  and  _154
REMARK   67  A    between atoms: _154  and  _155
REMARK   68  A    between atoms: _157  and  _159
REMARK   69  A    between atoms: _159  and  _160
REMARK   70  A    between atoms: _162  and  _164
REMARK   71  A    between atoms: _164  and  _165
REMARK   72  A    between atoms: _164  and  _167
REMARK   73  A    between atoms: _167  and  _168
REMARK   74  A    between atoms: _174  and  _176
REMARK   75  A    between atoms: _176  and  _177
REMARK   76  A    between atoms: _176  and  _179
REMARK   77  A    between atoms: _179  and  _180
REMARK   78  A    between atoms: _183  and  _185
REMARK   79  A    between atoms: _185  and  _186
REMARK   80  A    between atoms: _185  and  _188
REMARK   81  A    between atoms: _191  and  _193
REMARK   82  A    between atoms: _193  and  _194
REMARK   83  A    between atoms: _193  and  _196
REMARK   84  A    between atoms: _196  and  _197
REMARK   85  A    between atoms: _200  and  _202
REMARK   86  A    between atoms: _202  and  _203
REMARK   87  A    between atoms: _202  and  _205
REMARK   88  A    between atoms: _205  and  _206
REMARK   89  A    between atoms: _210  and  _211
REMARK   90  A    between atoms: _216  and  _218
REMARK   91  A    between atoms: _218  and  _219
REMARK   92  A    between atoms: _218  and  _221
REMARK   93  A    between atoms: _224  and  _226
REMARK   94  A    between atoms: _226  and  _227
REMARK   95  A    between atoms: _226  and  _229
REMARK   96  A    between atoms: _229  and  _230
REMARK   97  A    between atoms: _235  and  _237
REMARK   98  A    between atoms: _237  and  _238
REMARK   99  A    between atoms: _237  and  _240
REMARK  100  A    between atoms: _240  and  _241
REMARK  101  A    between atoms: _240  and  _242
REMARK  102  A    between atoms: _244  and  _246
REMARK  103  A    between atoms: _246  and  _247
REMARK  104  A    between atoms: _246  and  _249
REMARK  105  A    between atoms: _249  and  _250
REMARK  106  A    between atoms: _253  and  _255
REMARK  107  A    between atoms: _255  and  _256
REMARK  108  A    between atoms: _258  and  _260
REMARK  109  A    between atoms: _260  and  _261
REMARK  110  A    between atoms: _260  and  _263
REMARK  111  A    between atoms: _263  and  _264
REMARK  112  A    between atoms: _264  and  _265
REMARK  113  A    between atoms: _265  and  _266
REMARK  114  A    between atoms: _275  and  _277
REMARK  115  A    between atoms: _277  and  _278
REMARK  116  A    between atoms: _277  and  _280
REMARK  117  A    between atoms: _280  and  _281
REMARK  118  A    between atoms: _286  and  _288
REMARK  119  A    between atoms: _288  and  _289
REMARK  120  A    between atoms: _288  and  _291
REMARK  121  A    between atoms: _291  and  _292
REMARK  122  A    between atoms: _292  and  _293
REMARK  123  A    between atoms: _293  and  _294
REMARK  124  A    between atoms: _303  and  _305
REMARK  125  A    between atoms: _305  and  _306
REMARK  126  A    between atoms: _305  and  _308
REMARK  127  A    between atoms: _308  and  _309
REMARK  128  A    between atoms: _312  and  _314
REMARK  129  A    between atoms: _314  and  _315
REMARK  130  A    between atoms: _314  and  _317
REMARK  131  A    between atoms: _317  and  _318
REMARK  132  A    between atoms: _321  and  _323
REMARK  133  A    between atoms: _323  and  _324
REMARK  134  A    between atoms: _323  and  _326
REMARK  135  A    between atoms: _326  and  _327
REMARK  136  A    between atoms: _332  and  _334
REMARK  137  A    between atoms: _334  and  _335
REMARK  138  A    between atoms: _334  and  _337
REMARK  139  A    between atoms: _337  and  _338
REMARK  140  A    between atoms: _341  and  _343
REMARK  141  A    between atoms: _343  and  _344
REMARK  142  A    between atoms: _346  and  _348
REMARK  143  A    between atoms: _348  and  _349
REMARK  144  A    between atoms: _352  and  _354
REMARK  145  A    between atoms: _354  and  _355
REMARK  146  A    between atoms: _354  and  _357
REMARK  147  A    between atoms: _357  and  _358
REMARK  148  A    between atoms: _361  and  _363
REMARK  149  A    between atoms: _363  and  _364
REMARK  150  A    between atoms: _363  and  _366
REMARK  151  A    between atoms: _366  and  _367
REMARK  152  A    between atoms: _370  and  _372
REMARK  153  A    between atoms: _372  and  _373
REMARK  154  A    between atoms: _372  and  _375
REMARK  155  A    between atoms: _375  and  _376
REMARK  156  A    between atoms: _379  and  _381
REMARK  157  A    between atoms: _381  and  _382
REMARK  158  A    between atoms: _381  and  _384
REMARK  159  A    between atoms: _387  and  _389
REMARK  160  A    between atoms: _389  and  _390
REMARK  161  A    between atoms: _389  and  _392
REMARK  162  A    between atoms: _392  and  _393
REMARK  163  A    between atoms: _393  and  _394
REMARK  164  A    between atoms: _394  and  _395
REMARK  165  A    between atoms: _395  and  _396
REMARK  166  A    between atoms: _400  and  _402
REMARK  167  A    between atoms: _402  and  _403
REMARK  168  A    between atoms: _402  and  _405
REMARK  169  A    between atoms: _405  and  _406
REMARK  170  A    between atoms: _406  and  _407
REMARK  171  A    between atoms: _409  and  _411
REMARK  172  A    between atoms: _411  and  _412
REMARK  173  A    between atoms: _411  and  _414
REMARK  174  A    between atoms: _414  and  _415
REMARK  175  A    between atoms: _418  and  _420
REMARK  176  A    between atoms: _420  and  _421
REMARK  177  A    between atoms: _423  and  _425
REMARK  178  A    between atoms: _425  and  _426
REMARK  179  A    between atoms: _428  and  _430
REMARK  180  A    between atoms: _430  and  _431
REMARK  181  A    between atoms: _430  and  _433
REMARK  182  A    between atoms: _433  and  _434
REMARK  183  A    between atoms: _437  and  _439
REMARK  184  A    between atoms: _439  and  _440
REMARK  185  A    between atoms: _442  and  _444
REMARK  186  A    between atoms: _444  and  _445
REMARK  187  A    between atoms: _447  and  _449
REMARK  188  A    between atoms: _449  and  _450
REMARK  189  A    between atoms: _449  and  _452
REMARK  190  A    between atoms: _452  and  _453
REMARK  191  A    between atoms: _459  and  _461
REMARK  192  A    between atoms: _461  and  _462
REMARK  193  A    between atoms: _461  and  _464
REMARK  194  A    between atoms: _464  and  _465
REMARK  195  A    between atoms: _468  and  _470
REMARK  196  A    between atoms: _470  and  _471
REMARK  197  A    between atoms: _470  and  _473
REMARK  198  A    between atoms: _473  and  _474
REMARK  199  A    between atoms: _477  and  _479
REMARK  200  A    between atoms: _479  and  _480
REMARK  201  A    between atoms: _479  and  _482
REMARK  202  A    between atoms: _482  and  _483
REMARK  203  A    between atoms: _487  and  _488
REMARK  204  A    between atoms: _493  and  _495
REMARK  205  A    between atoms: _495  and  _496
REMARK  206  A    between atoms: _495  and  _498
REMARK  207  A    between atoms: _501  and  _503
REMARK  208  A    between atoms: _503  and  _504
REMARK  209  A    between atoms: _503  and  _506
REMARK  210  A    between atoms: _506  and  _507
REMARK  211  A    between atoms: _512  and  _514
REMARK  212  A    between atoms: _514  and  _515
REMARK  213  A    between atoms: _514  and  _517
REMARK  214  A    between atoms: _517  and  _518
REMARK  215  A    between atoms: _521  and  _523
REMARK  216  A    between atoms: _523  and  _524
REMARK  217  A    between atoms: _523  and  _526
REMARK  218  A    between atoms: _526  and  _527
REMARK  219  A    between atoms: _530  and  _532
REMARK  220  A    between atoms: _532  and  _533
REMARK  221  A    between atoms: _535  and  _537
REMARK  222  A    between atoms: _537  and  _538
REMARK  223  A    between atoms: _537  and  _540
REMARK  224  A    between atoms: _540  and  _541
REMARK  225  A    between atoms: _541  and  _542
REMARK  226  A    between atoms: _542  and  _543
REMARK  227  A    between atoms: _552  and  _554
REMARK  228  A    between atoms: _554  and  _555
REMARK  229  A    between atoms: _554  and  _557
REMARK  230  A    between atoms: _557  and  _558
REMARK                            x       y       z     vdW  Elec       q    Type
REMARK                         _______ _______ _______ _____ _____    ______ ____
ROOT
ATOM      1  O   HOH     1       6.859  58.496  22.857  0.00  0.00    +0.000 OA
ENDROOT
TORSDOF 0
REMARK  Name = ../refined-set-2016/3bvb/3bvb_pocket.pdb
REMARK  230 active torsions:
REMARK  status: ('A' for Active; 'I' for Inactive)
REMARK    1  A    between atoms: _1  and  _3
REMARK    2  A    between atoms: _3  and  _4
REMARK    3  A    between atoms: _3  and  _6
REMARK    4  A    between atoms: _6  and  _7
REMARK    5  A    between atoms: _7  and  _8
REMARK    6  A    between atoms: _8  and  _9
REMARK    7  A    between atoms: _18  and  _20
REMARK    8  A    between atoms: _20  and  _21
REMARK    9  A    between atoms: _20  and  _23
REMARK   10  A    between atoms: _23  and  _24
REMARK   11  A    between atoms: _27  and  _29
REMARK   12  A    between atoms: _29  and  _30
REMARK   13  A    between atoms: _29  and  _32
REMARK   14  A    between atoms: _32  and  _33
REMARK   15  A    between atoms: _36  and  _38
REMARK   16  A    between atoms: _38  and  _39
REMARK   17  A    between atoms: _38  and  _41
REMARK   18  A    between atoms: _41  and  _42
REMARK   19  A    between atoms: _47  and  _49
REMARK   20  A    between atoms: _49  and  _50
REMARK   21  A    between atoms: _49  and  _52
REMARK   22  A    between atoms: _52  and  _53
REMARK   23  A    between atoms: _56  and  _58
REMARK   24  A    between atoms: _58  and  _59
REMARK   25  A    between atoms: _61  and  _63
REMARK   26  A    between atoms: _63  and  _64
REMARK   27  A    between atoms: _67  and  _69
REMARK   28  A    between atoms: _69  and  _70
REMARK   29  A    between atoms: _69  and  _72
REMARK   30  A    between atoms: _72  and  _73
REMARK   31  A    between atoms: _76  and  _78
REMARK   32  A    between atoms: _78  and  _79
REMARK   33  A    between atoms: _78  and  _81
REMARK   34  A    between atoms: _81  and  _82
REMARK   35  A    between atoms: _85  and  _87
REMARK   36  A    between atoms: _87  and  _88
REMARK   37  A    between atoms: _87  and  _90
REMARK   38  A    between atoms: _90  and  _91
REMARK   39  A    between atoms: _94  and  _96
REMARK   40  A    between atoms: _96  and  _97
REMARK   41  A    between atoms: _96  and  _99
REMARK   42  A    between atoms: _102  and  _104
REMARK   43  A    between atoms: _104  and  _105
REMARK   44  A    between atoms: _104  and  _107
REMARK   45  A    between atoms: _107  and  _108
REMARK   46  A    between atoms: _108  and  _109
REMARK   47  A    between atoms: _109  and  _110
REMARK   48  A    between atoms: _110  and  _111
REMARK   49  A    between atoms: _115  and  _117
REMARK   50  A    between atoms: _117  and  _118
REMARK   51  A    between atoms: _117  and  _120
REMARK   52  A    between atoms: _120  and  _121
REMARK   53  A    between atoms: _121  and  _122
REMARK   54  A    between atoms: _124  and  _126
REMARK   55  A    between atoms: _126  and  _127
REMARK   56  A    between atoms: _126  and  _129
REMARK   57  A    between atoms: _129  and  _130
REMARK   58  A    between atoms: _133  and  _135
REMARK   59  A    between atoms: _135  and  _136
REMARK   60  A    between atoms: _138  and  _140
REMARK   61  A    between atoms: _140  and  _141
REMARK   62  A    between atoms: _143  and  _145
REMARK   63  A    between atoms: _145  and  _146
REMARK   64  A    between atoms: _145  and  _148
REMARK   65  A    between atoms: _148  and  _149
REMARK   66  A    between atoms: _152  and  _154
REMARK   67  A    between atoms: _154  and  _155
REMARK   68  A    between atoms: _157  and  _159
REMARK   69  A    between atoms: _159  and  _160
REMARK   70  A    between atoms: _162  and  _164
REMARK   71  A    between atoms: _164  and  _165
REMARK   72  A    between atoms: _164  and  _167
REMARK   73  A    between atoms: _167  and  _168
REMARK   74  A    between atoms: _174  and  _176
REMARK   75  A    between atoms: _176  and  _177
REMARK   76  A    between atoms: _176  and  _179
REMARK   77  A    between atoms: _179  and  _180
REMARK   78  A    between atoms: _183  and  _185
REMARK   79  A    between atoms: _185  and  _186
REMARK   80  A    between atoms: _185  and  _188
REMARK   81  A    between atoms: _191  and  _193
REMARK   82  A    between atoms: _193  and  _194
REMARK   83  A    between atoms: _193  and  _196
REMARK   84  A    between atoms: _196  and  _197
REMARK   85  A    between atoms: _200  and  _202
REMARK   86  A    between atoms: _202  and  _203
REMARK   87  A    between atoms: _202  and  _205
REMARK   88  A    between atoms: _205  and  _206
REMARK   89  A    between atoms: _210  and  _211
REMARK   90  A    between atoms: _216  and  _218
REMARK   91  A    between atoms: _218  and  _219
REMARK   92  A    between atoms: _218  and  _221
REMARK   93  A    between atoms: _224  and  _226
REMARK   94  A    between atoms: _226  and  _227
REMARK   95  A    between atoms: _226  and  _229
REMARK   96  A    between atoms: _229  and  _230
REMARK   97  A    between atoms: _235  and  _237
REMARK   98  A    between atoms: _237  and  _238
REMARK   99  A    between atoms: _237  and  _240
REMARK  100  A    between atoms: _240  and  _241
REMARK  101  A    between atoms: _240  and  _242
REMARK  102  A    between atoms: _244  and  _246
REMARK  103  A    between atoms: _246  and  _247
REMARK  104  A    between atoms: _246  and  _249
REMARK  105  A    between atoms: _249  and  _250
REMARK  106  A    between atoms: _253  and  _255
REMARK  107  A    between atoms: _255  and  _256
REMARK  108  A    between atoms: _258  and  _260
REMARK  109  A    between atoms: _260  and  _261
REMARK  110  A    between atoms: _260  and  _263
REMARK  111  A    between atoms: _263  and  _264
REMARK  112  A    between atoms: _264  and  _265
REMARK  113  A    between atoms: _265  and  _266
REMARK  114  A    between atoms: _275  and  _277
REMARK  115  A    between atoms: _277  and  _278
REMARK  116  A    between atoms: _277  and  _280
REMARK  117  A    between atoms: _280  and  _281
REMARK  118  A    between atoms: _286  and  _288
REMARK  119  A    between atoms: _288  and  _289
REMARK  120  A    between atoms: _288  and  _291
REMARK  121  A    between atoms: _291  and  _292
REMARK  122  A    between atoms: _292  and  _293
REMARK  123  A    between atoms: _293  and  _294
REMARK  124  A    between atoms: _303  and  _305
REMARK  125  A    between atoms: _305  and  _306
REMARK  126  A    between atoms: _305  and  _308
REMARK  127  A    between atoms: _308  and  _309
REMARK  128  A    between atoms: _312  and  _314
REMARK  129  A    between atoms: _314  and  _315
REMARK  130  A    between atoms: _314  and  _317
REMARK  131  A    between atoms: _317  and  _318
REMARK  132  A    between atoms: _321  and  _323
REMARK  133  A    between atoms: _323  and  _324
REMARK  134  A    between atoms: _323  and  _326
REMARK  135  A    between atoms: _326  and  _327
REMARK  136  A    between atoms: _332  and  _334
REMARK  137  A    between atoms: _334  and  _335
REMARK  138  A    between atoms: _334  and  _337
REMARK  139  A    between atoms: _337  and  _338
REMARK  140  A    between atoms: _341  and  _343
REMARK  141  A    between atoms: _343  and  _344
REMARK  142  A    between atoms: _346  and  _348
REMARK  143  A    between atoms: _348  and  _349
REMARK  144  A    between atoms: _352  and  _354
REMARK  145  A    between atoms: _354  and  _355
REMARK  146  A    between atoms: _354  and  _357
REMARK  147  A    between atoms: _357  and  _358
REMARK  148  A    between atoms: _361  and  _363
REMARK  149  A    between atoms: _363  and  _364
REMARK  150  A    between atoms: _363  and  _366
REMARK  151  A    between atoms: _366  and  _367
REMARK  152  A    between atoms: _370  and  _372
REMARK  153  A    between atoms: _372  and  _373
REMARK  154  A    between atoms: _372  and  _375
REMARK  155  A    between atoms: _375  and  _376
REMARK  156  A    between atoms: _379  and  _381
REMARK  157  A    between atoms: _381  and  _382
REMARK  158  A    between atoms: _381  and  _384
REMARK  159  A    between atoms: _387  and  _389
REMARK  160  A    between atoms: _389  and  _390
REMARK  161  A    between atoms: _389  and  _392
REMARK  162  A    between atoms: _392  and  _393
REMARK  163  A    between atoms: _393  and  _394
REMARK  164  A    between atoms: _394  and  _395
REMARK  165  A    between atoms: _395  and  _396
REMARK  166  A    between atoms: _400  and  _402
REMARK  167  A    between atoms: _402  and  _403
REMARK  168  A    between atoms: _402  and  _405
REMARK  169  A    between atoms: _405  and  _406
REMARK  170  A    between atoms: _406  and  _407
REMARK  171  A    between atoms: _409  and  _411
REMARK  172  A    between atoms: _411  and  _412
REMARK  173  A    between atoms: _411  and  _414
REMARK  174  A    between atoms: _414  and  _415
REMARK  175  A    between atoms: _418  and  _420
REMARK  176  A    between atoms: _420  and  _421
REMARK  177  A    between atoms: _423  and  _425
REMARK  178  A    between atoms: _425  and  _426
REMARK  179  A    between atoms: _428  and  _430
REMARK  180  A    between atoms: _430  and  _431
REMARK  181  A    between atoms: _430  and  _433
REMARK  182  A    between atoms: _433  and  _434
REMARK  183  A    between atoms: _437  and  _439
REMARK  184  A    between atoms: _439  and  _440
REMARK  185  A    between atoms: _442  and  _444
REMARK  186  A    between atoms: _444  and  _445
REMARK  187  A    between atoms: _447  and  _449
REMARK  188  A    between atoms: _449  and  _450
REMARK  189  A    between atoms: _449  and  _452
REMARK  190  A    between atoms: _452  and  _453
REMARK  191  A    between atoms: _459  and  _461
REMARK  192  A    between atoms: _461  and  _462
REMARK  193  A    between atoms: _461  and  _464
REMARK  194  A    between atoms: _464  and  _465
REMARK  195  A    between atoms: _468  and  _470
REMARK  196  A    between atoms: _470  and  _471
REMARK  197  A    between atoms: _470  and  _473
REMARK  198  A    between atoms: _473  and  _474
REMARK  199  A    between atoms: _477  and  _479
REMARK  200  A    between atoms: _479  and  _480
REMARK  201  A    between atoms: _479  and  _482
REMARK  202  A    between atoms: _482  and  _483
REMARK  203  A    between atoms: _487  and  _488
REMARK  204  A    between atoms: _493  and  _495
REMARK  205  A    between atoms: _495  and  _496
REMARK  206  A    between atoms: _495  and  _498
REMARK  207  A    between atoms: _501  and  _503
REMARK  208  A    between atoms: _503  and  _504
REMARK  209  A    between atoms: _503  and  _506
REMARK  210  A    between atoms: _506  and  _507
REMARK  211  A    between atoms: _512  and  _514
REMARK  212  A    between atoms: _514  and  _515
REMARK  213  A    between atoms: _514  and  _517
REMARK  214  A    between atoms: _517  and  _518
REMARK  215  A    between atoms: _521  and  _523
REMARK  216  A    between atoms: _523  and  _524
REMARK  217  A    between atoms: _523  and  _526
REMARK  218  A    between atoms: _526  and  _527
REMARK  219  A    between atoms: _530  and  _532
REMARK  220  A    between atoms: _532  and  _533
REMARK  221  A    between atoms: _535  and  _537
REMARK  222  A    between atoms: _537  and  _538
REMARK  223  A    between atoms: _537  and  _540
REMARK  224  A    between atoms: _540  and  _541
REMARK  225  A    between atoms: _541  and  _542
REMARK  226  A    between atoms: _542  and  _543
REMARK  227  A    between atoms: _552  and  _554
REMARK  228  A    between atoms: _554  and  _555
REMARK  229  A    between atoms: _554  and  _557
REMARK  230  A    between atoms: _557  and  _558
REMARK                            x       y       z     vdW  Elec       q    Type
REMARK                         _______ _______ _______ _____ _____    ______ ____
ROOT
ATOM      1  O   HOH     1       6.032  57.965  26.020  0.00  0.00    +0.000 OA
ENDROOT
TORSDOF 0
REMARK  Name = ../refined-set-2016/3bvb/3bvb_pocket.pdb
REMARK  230 active torsions:
REMARK  status: ('A' for Active; 'I' for Inactive)
REMARK    1  A    between atoms: _1  and  _3
REMARK    2  A    between atoms: _3  and  _4
REMARK    3  A    between atoms: _3  and  _6
REMARK    4  A    between atoms: _6  and  _7
REMARK    5  A    between atoms: _7  and  _8
REMARK    6  A    between atoms: _8  and  _9
REMARK    7  A    between atoms: _18  and  _20
REMARK    8  A    between atoms: _20  and  _21
REMARK    9  A    between atoms: _20  and  _23
REMARK   10  A    between atoms: _23  and  _24
REMARK   11  A    between atoms: _27  and  _29
REMARK   12  A    between atoms: _29  and  _30
REMARK   13  A    between atoms: _29  and  _32
REMARK   14  A    between atoms: _32  and  _33
REMARK   15  A    between atoms: _36  and  _38
REMARK   16  A    between atoms: _38  and  _39
REMARK   17  A    between atoms: _38  and  _41
REMARK   18  A    between atoms: _41  and  _42
REMARK   19  A    between atoms: _47  and  _49
REMARK   20  A    between atoms: _49  and  _50
REMARK   21  A    between atoms: _49  and  _52
REMARK   22  A    between atoms: _52  and  _53
REMARK   23  A    between atoms: _56  and  _58
REMARK   24  A    between atoms: _58  and  _59
REMARK   25  A    between atoms: _61  and  _63
REMARK   26  A    between atoms: _63  and  _64
REMARK   27  A    between atoms: _67  and  _69
REMARK   28  A    between atoms: _69  and  _70
REMARK   29  A    between atoms: _69  and  _72
REMARK   30  A    between atoms: _72  and  _73
REMARK   31  A    between atoms: _76  and  _78
REMARK   32  A    between atoms: _78  and  _79
REMARK   33  A    between atoms: _78  and  _81
REMARK   34  A    between atoms: _81  and  _82
REMARK   35  A    between atoms: _85  and  _87
REMARK   36  A    between atoms: _87  and  _88
REMARK   37  A    between atoms: _87  and  _90
REMARK   38  A    between atoms: _90  and  _91
REMARK   39  A    between atoms: _94  and  _96
REMARK   40  A    between atoms: _96  and  _97
REMARK   41  A    between atoms: _96  and  _99
REMARK   42  A    between atoms: _102  and  _104
REMARK   43  A    between atoms: _104  and  _105
REMARK   44  A    between atoms: _104  and  _107
REMARK   45  A    between atoms: _107  and  _108
REMARK   46  A    between atoms: _108  and  _109
REMARK   47  A    between atoms: _109  and  _110
REMARK   48  A    between atoms: _110  and  _111
REMARK   49  A    between atoms: _115  and  _117
REMARK   50  A    between atoms: _117  and  _118
REMARK   51  A    between atoms: _117  and  _120
REMARK   52  A    between atoms: _120  and  _121
REMARK   53  A    between atoms: _121  and  _122
REMARK   54  A    between atoms: _124  and  _126
REMARK   55  A    between atoms: _126  and  _127
REMARK   56  A    between atoms: _126  and  _129
REMARK   57  A    between atoms: _129  and  _130
REMARK   58  A    between atoms: _133  and  _135
REMARK   59  A    between atoms: _135  and  _136
REMARK   60  A    between atoms: _138  and  _140
REMARK   61  A    between atoms: _140  and  _141
REMARK   62  A    between atoms: _143  and  _145
REMARK   63  A    between atoms: _145  and  _146
REMARK   64  A    between atoms: _145  and  _148
REMARK   65  A    between atoms: _148  and  _149
REMARK   66  A    between atoms: _152  and  _154
REMARK   67  A    between atoms: _154  and  _155
REMARK   68  A    between atoms: _157  and  _159
REMARK   69  A    between atoms: _159  and  _160
REMARK   70  A    between atoms: _162  and  _164
REMARK   71  A    between atoms: _164  and  _165
REMARK   72  A    between atoms: _164  and  _167
REMARK   73  A    between atoms: _167  and  _168
REMARK   74  A    between atoms: _174  and  _176
REMARK   75  A    between atoms: _176  and  _177
REMARK   76  A    between atoms: _176  and  _179
REMARK   77  A    between atoms: _179  and  _180
REMARK   78  A    between atoms: _183  and  _185
REMARK   79  A    between atoms: _185  and  _186
REMARK   80  A    between atoms: _185  and  _188
REMARK   81  A    between atoms: _191  and  _193
REMARK   82  A    between atoms: _193  and  _194
REMARK   83  A    between atoms: _193  and  _196
REMARK   84  A    between atoms: _196  and  _197
REMARK   85  A    between atoms: _200  and  _202
REMARK   86  A    between atoms: _202  and  _203
REMARK   87  A    between atoms: _202  and  _205
REMARK   88  A    between atoms: _205  and  _206
REMARK   89  A    between atoms: _210  and  _211
REMARK   90  A    between atoms: _216  and  _218
REMARK   91  A    between atoms: _218  and  _219
REMARK   92  A    between atoms: _218  and  _221
REMARK   93  A    between atoms: _224  and  _226
REMARK   94  A    between atoms: _226  and  _227
REMARK   95  A    between atoms: _226  and  _229
REMARK   96  A    between atoms: _229  and  _230
REMARK   97  A    between atoms: _235  and  _237
REMARK   98  A    between atoms: _237  and  _238
REMARK   99  A    between atoms: _237  and  _240
REMARK  100  A    between atoms: _240  and  _241
REMARK  101  A    between atoms: _240  and  _242
REMARK  102  A    between atoms: _244  and  _246
REMARK  103  A    between atoms: _246  and  _247
REMARK  104  A    between atoms: _246  and  _249
REMARK  105  A    between atoms: _249  and  _250
REMARK  106  A    between atoms: _253  and  _255
REMARK  107  A    between atoms: _255  and  _256
REMARK  108  A    between atoms: _258  and  _260
REMARK  109  A    between atoms: _260  and  _261
REMARK  110  A    between atoms: _260  and  _263
REMARK  111  A    between atoms: _263  and  _264
REMARK  112  A    between atoms: _264  and  _265
REMARK  113  A    between atoms: _265  and  _266
REMARK  114  A    between atoms: _275  and  _277
REMARK  115  A    between atoms: _277  and  _278
REMARK  116  A    between atoms: _277  and  _280
REMARK  117  A    between atoms: _280  and  _281
REMARK  118  A    between atoms: _286  and  _288
REMARK  119  A    between atoms: _288  and  _289
REMARK  120  A    between atoms: _288  and  _291
REMARK  121  A    between atoms: _291  and  _292
REMARK  122  A    between atoms: _292  and  _293
REMARK  123  A    between atoms: _293  and  _294
REMARK  124  A    between atoms: _303  and  _305
REMARK  125  A    between atoms: _305  and  _306
REMARK  126  A    between atoms: _305  and  _308
REMARK  127  A    between atoms: _308  and  _309
REMARK  128  A    between atoms: _312  and  _314
REMARK  129  A    between atoms: _314  and  _315
REMARK  130  A    between atoms: _314  and  _317
REMARK  131  A    between atoms: _317  and  _318
REMARK  132  A    between atoms: _321  and  _323
REMARK  133  A    between atoms: _323  and  _324
REMARK  134  A    between atoms: _323  and  _326
REMARK  135  A    between atoms: _326  and  _327
REMARK  136  A    between atoms: _332  and  _334
REMARK  137  A    between atoms: _334  and  _335
REMARK  138  A    between atoms: _334  and  _337
REMARK  139  A    between atoms: _337  and  _338
REMARK  140  A    between atoms: _341  and  _343
REMARK  141  A    between atoms: _343  and  _344
REMARK  142  A    between atoms: _346  and  _348
REMARK  143  A    between atoms: _348  and  _349
REMARK  144  A    between atoms: _352  and  _354
REMARK  145  A    between atoms: _354  and  _355
REMARK  146  A    between atoms: _354  and  _357
REMARK  147  A    between atoms: _357  and  _358
REMARK  148  A    between atoms: _361  and  _363
REMARK  149  A    between atoms: _363  and  _364
REMARK  150  A    between atoms: _363  and  _366
REMARK  151  A    between atoms: _366  and  _367
REMARK  152  A    between atoms: _370  and  _372
REMARK  153  A    between atoms: _372  and  _373
REMARK  154  A    between atoms: _372  and  _375
REMARK  155  A    between atoms: _375  and  _376
REMARK  156  A    between atoms: _379  and  _381
REMARK  157  A    between atoms: _381  and  _382
REMARK  158  A    between atoms: _381  and  _384
REMARK  159  A    between atoms: _387  and  _389
REMARK  160  A    between atoms: _389  and  _390
REMARK  161  A    between atoms: _389  and  _392
REMARK  162  A    between atoms: _392  and  _393
REMARK  163  A    between atoms: _393  and  _394
REMARK  164  A    between atoms: _394  and  _395
REMARK  165  A    between atoms: _395  and  _396
REMARK  166  A    between atoms: _400  and  _402
REMARK  167  A    between atoms: _402  and  _403
REMARK  168  A    between atoms: _402  and  _405
REMARK  169  A    between atoms: _405  and  _406
REMARK  170  A    between atoms: _406  and  _407
REMARK  171  A    between atoms: _409  and  _411
REMARK  172  A    between atoms: _411  and  _412
REMARK  173  A    between atoms: _411  and  _414
REMARK  174  A    between atoms: _414  and  _415
REMARK  175  A    between atoms: _418  and  _420
REMARK  176  A    between atoms: _420  and  _421
REMARK  177  A    between atoms: _423  and  _425
REMARK  178  A    between atoms: _425  and  _426
REMARK  179  A    between atoms: _428  and  _430
REMARK  180  A    between atoms: _430  and  _431
REMARK  181  A    between atoms: _430  and  _433
REMARK  182  A    between atoms: _433  and  _434
REMARK  183  A    between atoms: _437  and  _439
REMARK  184  A    between atoms: _439  and  _440
REMARK  185  A    between atoms: _442  and  _444
REMARK  186  A    between atoms: _444  and  _445
REMARK  187  A    between atoms: _447  and  _449
REMARK  188  A    between atoms: _449  and  _450
REMARK  189  A    between atoms: _449  and  _452
REMARK  190  A    between atoms: _452  and  _453
REMARK  191  A    between atoms: _459  and  _461
REMARK  192  A    between atoms: _461  and  _462
REMARK  193  A    between atoms: _461  and  _464
REMARK  194  A    between atoms: _464  and  _465
REMARK  195  A    between atoms: _468  and  _470
REMARK  196  A    between atoms: _470  and  _471
REMARK  197  A    between atoms: _470  and  _473
REMARK  198  A    between atoms: _473  and  _474
REMARK  199  A    between atoms: _477  and  _479
REMARK  200  A    between atoms: _479  and  _480
REMARK  201  A    between atoms: _479  and  _482
REMARK  202  A    between atoms: _482  and  _483
REMARK  203  A    between atoms: _487  and  _488
REMARK  204  A    between atoms: _493  and  _495
REMARK  205  A    between atoms: _495  and  _496
REMARK  206  A    between atoms: _495  and  _498
REMARK  207  A    between atoms: _501  and  _503
REMARK  208  A    between atoms: _503  and  _504
REMARK  209  A    between atoms: _503  and  _506
REMARK  210  A    between atoms: _506  and  _507
REMARK  211  A    between atoms: _512  and  _514
REMARK  212  A    between atoms: _514  and  _515
REMARK  213  A    between atoms: _514  and  _517
REMARK  214  A    between atoms: _517  and  _518
REMARK  215  A    between atoms: _521  and  _523
REMARK  216  A    between atoms: _523  and  _524
REMARK  217  A    between atoms: _523  and  _526
REMARK  218  A    between atoms: _526  and  _527
REMARK  219  A    between atoms: _530  and  _532
REMARK  220  A    between atoms: _532  and  _533
REMARK  221  A    between atoms: _535  and  _537
REMARK  222  A    between atoms: _537  and  _538
REMARK  223  A    between atoms: _537  and  _540
REMARK  224  A    between atoms: _540  and  _541
REMARK  225  A    between atoms: _541  and  _542
REMARK  226  A    between atoms: _542  and  _543
REMARK  227  A    between atoms: _552  and  _554
REMARK  228  A    between atoms: _554  and  _555
REMARK  229  A    between atoms: _554  and  _557
REMARK  230  A    between atoms: _557  and  _558
REMARK                            x       y       z     vdW  Elec       q    Type
REMARK                         _______ _______ _______ _____ _____    ______ ____
ROOT
ATOM      1  O   HOH     1      24.663  67.007  22.631  0.00  0.00    +0.000 OA
ENDROOT
TORSDOF 0
REMARK  Name = ../refined-set-2016/3bvb/3bvb_pocket.pdb
REMARK  230 active torsions:
REMARK  status: ('A' for Active; 'I' for Inactive)
REMARK    1  A    between atoms: _1  and  _3
REMARK    2  A    between atoms: _3  and  _4
REMARK    3  A    between atoms: _3  and  _6
REMARK    4  A    between atoms: _6  and  _7
REMARK    5  A    between atoms: _7  and  _8
REMARK    6  A    between atoms: _8  and  _9
REMARK    7  A    between atoms: _18  and  _20
REMARK    8  A    between atoms: _20  and  _21
REMARK    9  A    between atoms: _20  and  _23
REMARK   10  A    between atoms: _23  and  _24
REMARK   11  A    between atoms: _27  and  _29
REMARK   12  A    between atoms: _29  and  _30
REMARK   13  A    between atoms: _29  and  _32
REMARK   14  A    between atoms: _32  and  _33
REMARK   15  A    between atoms: _36  and  _38
REMARK   16  A    between atoms: _38  and  _39
REMARK   17  A    between atoms: _38  and  _41
REMARK   18  A    between atoms: _41  and  _42
REMARK   19  A    between atoms: _47  and  _49
REMARK   20  A    between atoms: _49  and  _50
REMARK   21  A    between atoms: _49  and  _52
REMARK   22  A    between atoms: _52  and  _53
REMARK   23  A    between atoms: _56  and  _58
REMARK   24  A    between atoms: _58  and  _59
REMARK   25  A    between atoms: _61  and  _63
REMARK   26  A    between atoms: _63  and  _64
REMARK   27  A    between atoms: _67  and  _69
REMARK   28  A    between atoms: _69  and  _70
REMARK   29  A    between atoms: _69  and  _72
REMARK   30  A    between atoms: _72  and  _73
REMARK   31  A    between atoms: _76  and  _78
REMARK   32  A    between atoms: _78  and  _79
REMARK   33  A    between atoms: _78  and  _81
REMARK   34  A    between atoms: _81  and  _82
REMARK   35  A    between atoms: _85  and  _87
REMARK   36  A    between atoms: _87  and  _88
REMARK   37  A    between atoms: _87  and  _90
REMARK   38  A    between atoms: _90  and  _91
REMARK   39  A    between atoms: _94  and  _96
REMARK   40  A    between atoms: _96  and  _97
REMARK   41  A    between atoms: _96  and  _99
REMARK   42  A    between atoms: _102  and  _104
REMARK   43  A    between atoms: _104  and  _105
REMARK   44  A    between atoms: _104  and  _107
REMARK   45  A    between atoms: _107  and  _108
REMARK   46  A    between atoms: _108  and  _109
REMARK   47  A    between atoms: _109  and  _110
REMARK   48  A    between atoms: _110  and  _111
REMARK   49  A    between atoms: _115  and  _117
REMARK   50  A    between atoms: _117  and  _118
REMARK   51  A    between atoms: _117  and  _120
REMARK   52  A    between atoms: _120  and  _121
REMARK   53  A    between atoms: _121  and  _122
REMARK   54  A    between atoms: _124  and  _126
REMARK   55  A    between atoms: _126  and  _127
REMARK   56  A    between atoms: _126  and  _129
REMARK   57  A    between atoms: _129  and  _130
REMARK   58  A    between atoms: _133  and  _135
REMARK   59  A    between atoms: _135  and  _136
REMARK   60  A    between atoms: _138  and  _140
REMARK   61  A    between atoms: _140  and  _141
REMARK   62  A    between atoms: _143  and  _145
REMARK   63  A    between atoms: _145  and  _146
REMARK   64  A    between atoms: _145  and  _148
REMARK   65  A    between atoms: _148  and  _149
REMARK   66  A    between atoms: _152  and  _154
REMARK   67  A    between atoms: _154  and  _155
REMARK   68  A    between atoms: _157  and  _159
REMARK   69  A    between atoms: _159  and  _160
REMARK   70  A    between atoms: _162  and  _164
REMARK   71  A    between atoms: _164  and  _165
REMARK   72  A    between atoms: _164  and  _167
REMARK   73  A    between atoms: _167  and  _168
REMARK   74  A    between atoms: _174  and  _176
REMARK   75  A    between atoms: _176  and  _177
REMARK   76  A    between atoms: _176  and  _179
REMARK   77  A    between atoms: _179  and  _180
REMARK   78  A    between atoms: _183  and  _185
REMARK   79  A    between atoms: _185  and  _186
REMARK   80  A    between atoms: _185  and  _188
REMARK   81  A    between atoms: _191  and  _193
REMARK   82  A    between atoms: _193  and  _194
REMARK   83  A    between atoms: _193  and  _196
REMARK   84  A    between atoms: _196  and  _197
REMARK   85  A    between atoms: _200  and  _202
REMARK   86  A    between atoms: _202  and  _203
REMARK   87  A    between atoms: _202  and  _205
REMARK   88  A    between atoms: _205  and  _206
REMARK   89  A    between atoms: _210  and  _211
REMARK   90  A    between atoms: _216  and  _218
REMARK   91  A    between atoms: _218  and  _219
REMARK   92  A    between atoms: _218  and  _221
REMARK   93  A    between atoms: _224  and  _226
REMARK   94  A    between atoms: _226  and  _227
REMARK   95  A    between atoms: _226  and  _229
REMARK   96  A    between atoms: _229  and  _230
REMARK   97  A    between atoms: _235  and  _237
REMARK   98  A    between atoms: _237  and  _238
REMARK   99  A    between atoms: _237  and  _240
REMARK  100  A    between atoms: _240  and  _241
REMARK  101  A    between atoms: _240  and  _242
REMARK  102  A    between atoms: _244  and  _246
REMARK  103  A    between atoms: _246  and  _247
REMARK  104  A    between atoms: _246  and  _249
REMARK  105  A    between atoms: _249  and  _250
REMARK  106  A    between atoms: _253  and  _255
REMARK  107  A    between atoms: _255  and  _256
REMARK  108  A    between atoms: _258  and  _260
REMARK  109  A    between atoms: _260  and  _261
REMARK  110  A    between atoms: _260  and  _263
REMARK  111  A    between atoms: _263  and  _264
REMARK  112  A    between atoms: _264  and  _265
REMARK  113  A    between atoms: _265  and  _266
REMARK  114  A    between atoms: _275  and  _277
REMARK  115  A    between atoms: _277  and  _278
REMARK  116  A    between atoms: _277  and  _280
REMARK  117  A    between atoms: _280  and  _281
REMARK  118  A    between atoms: _286  and  _288
REMARK  119  A    between atoms: _288  and  _289
REMARK  120  A    between atoms: _288  and  _291
REMARK  121  A    between atoms: _291  and  _292
REMARK  122  A    between atoms: _292  and  _293
REMARK  123  A    between atoms: _293  and  _294
REMARK  124  A    between atoms: _303  and  _305
REMARK  125  A    between atoms: _305  and  _306
REMARK  126  A    between atoms: _305  and  _308
REMARK  127  A    between atoms: _308  and  _309
REMARK  128  A    between atoms: _312  and  _314
REMARK  129  A    between atoms: _314  and  _315
REMARK  130  A    between atoms: _314  and  _317
REMARK  131  A    between atoms: _317  and  _318
REMARK  132  A    between atoms: _321  and  _323
REMARK  133  A    between atoms: _323  and  _324
REMARK  134  A    between atoms: _323  and  _326
REMARK  135  A    between atoms: _326  and  _327
REMARK  136  A    between atoms: _332  and  _334
REMARK  137  A    between atoms: _334  and  _335
REMARK  138  A    between atoms: _334  and  _337
REMARK  139  A    between atoms: _337  and  _338
REMARK  140  A    between atoms: _341  and  _343
REMARK  141  A    between atoms: _343  and  _344
REMARK  142  A    between atoms: _346  and  _348
REMARK  143  A    between atoms: _348  and  _349
REMARK  144  A    between atoms: _352  and  _354
REMARK  145  A    between atoms: _354  and  _355
REMARK  146  A    between atoms: _354  and  _357
REMARK  147  A    between atoms: _357  and  _358
REMARK  148  A    between atoms: _361  and  _363
REMARK  149  A    between atoms: _363  and  _364
REMARK  150  A    between atoms: _363  and  _366
REMARK  151  A    between atoms: _366  and  _367
REMARK  152  A    between atoms: _370  and  _372
REMARK  153  A    between atoms: _372  and  _373
REMARK  154  A    between atoms: _372  and  _375
REMARK  155  A    between atoms: _375  and  _376
REMARK  156  A    between atoms: _379  and  _381
REMARK  157  A    between atoms: _381  and  _382
REMARK  158  A    between atoms: _381  and  _384
REMARK  159  A    between atoms: _387  and  _389
REMARK  160  A    between atoms: _389  and  _390
REMARK  161  A    between atoms: _389  and  _392
REMARK  162  A    between atoms: _392  and  _393
REMARK  163  A    between atoms: _393  and  _394
REMARK  164  A    between atoms: _394  and  _395
REMARK  165  A    between atoms: _395  and  _396
REMARK  166  A    between atoms: _400  and  _402
REMARK  167  A    between atoms: _402  and  _403
REMARK  168  A    between atoms: _402  and  _405
REMARK  169  A    between atoms: _405  and  _406
REMARK  170  A    between atoms: _406  and  _407
REMARK  171  A    between atoms: _409  and  _411
REMARK  172  A    between atoms: _411  and  _412
REMARK  173  A    between atoms: _411  and  _414
REMARK  174  A    between atoms: _414  and  _415
REMARK  175  A    between atoms: _418  and  _420
REMARK  176  A    between atoms: _420  and  _421
REMARK  177  A    between atoms: _423  and  _425
REMARK  178  A    between atoms: _425  and  _426
REMARK  179  A    between atoms: _428  and  _430
REMARK  180  A    between atoms: _430  and  _431
REMARK  181  A    between atoms: _430  and  _433
REMARK  182  A    between atoms: _433  and  _434
REMARK  183  A    between atoms: _437  and  _439
REMARK  184  A    between atoms: _439  and  _440
REMARK  185  A    between atoms: _442  and  _444
REMARK  186  A    between atoms: _444  and  _445
REMARK  187  A    between atoms: _447  and  _449
REMARK  188  A    between atoms: _449  and  _450
REMARK  189  A    between atoms: _449  and  _452
REMARK  190  A    between atoms: _452  and  _453
REMARK  191  A    between atoms: _459  and  _461
REMARK  192  A    between atoms: _461  and  _462
REMARK  193  A    between atoms: _461  and  _464
REMARK  194  A    between atoms: _464  and  _465
REMARK  195  A    between atoms: _468  and  _470
REMARK  196  A    between atoms: _470  and  _471
REMARK  197  A    between atoms: _470  and  _473
REMARK  198  A    between atoms: _473  and  _474
REMARK  199  A    between atoms: _477  and  _479
REMARK  200  A    between atoms: _479  and  _480
REMARK  201  A    between atoms: _479  and  _482
REMARK  202  A    between atoms: _482  and  _483
REMARK  203  A    between atoms: _487  and  _488
REMARK  204  A    between atoms: _493  and  _495
REMARK  205  A    between atoms: _495  and  _496
REMARK  206  A    between atoms: _495  and  _498
REMARK  207  A    between atoms: _501  and  _503
REMARK  208  A    between atoms: _503  and  _504
REMARK  209  A    between atoms: _503  and  _506
REMARK  210  A    between atoms: _506  and  _507
REMARK  211  A    between atoms: _512  and  _514
REMARK  212  A    between atoms: _514  and  _515
REMARK  213  A    between atoms: _514  and  _517
REMARK  214  A    between atoms: _517  and  _518
REMARK  215  A    between atoms: _521  and  _523
REMARK  216  A    between atoms: _523  and  _524
REMARK  217  A    between atoms: _523  and  _526
REMARK  218  A    between atoms: _526  and  _527
REMARK  219  A    between atoms: _530  and  _532
REMARK  220  A    between atoms: _532  and  _533
REMARK  221  A    between atoms: _535  and  _537
REMARK  222  A    between atoms: _537  and  _538
REMARK  223  A    between atoms: _537  and  _540
REMARK  224  A    between atoms: _540  and  _541
REMARK  225  A    between atoms: _541  and  _542
REMARK  226  A    between atoms: _542  and  _543
REMARK  227  A    between atoms: _552  and  _554
REMARK  228  A    between atoms: _554  and  _555
REMARK  229  A    between atoms: _554  and  _557
REMARK  230  A    between atoms: _557  and  _558
REMARK                            x       y       z     vdW  Elec       q    Type
REMARK                         _______ _______ _______ _____ _____    ______ ____
ROOT
ATOM      1  O   HOH     1      12.263  70.727   9.396  0.00  0.00    +0.000 OA
ENDROOT
TORSDOF 0
REMARK  Name = ../refined-set-2016/3bvb/3bvb_pocket.pdb
REMARK  230 active torsions:
REMARK  status: ('A' for Active; 'I' for Inactive)
REMARK    1  A    between atoms: _1  and  _3
REMARK    2  A    between atoms: _3  and  _4
REMARK    3  A    between atoms: _3  and  _6
REMARK    4  A    between atoms: _6  and  _7
REMARK    5  A    between atoms: _7  and  _8
REMARK    6  A    between atoms: _8  and  _9
REMARK    7  A    between atoms: _18  and  _20
REMARK    8  A    between atoms: _20  and  _21
REMARK    9  A    between atoms: _20  and  _23
REMARK   10  A    between atoms: _23  and  _24
REMARK   11  A    between atoms: _27  and  _29
REMARK   12  A    between atoms: _29  and  _30
REMARK   13  A    between atoms: _29  and  _32
REMARK   14  A    between atoms: _32  and  _33
REMARK   15  A    between atoms: _36  and  _38
REMARK   16  A    between atoms: _38  and  _39
REMARK   17  A    between atoms: _38  and  _41
REMARK   18  A    between atoms: _41  and  _42
REMARK   19  A    between atoms: _47  and  _49
REMARK   20  A    between atoms: _49  and  _50
REMARK   21  A    between atoms: _49  and  _52
REMARK   22  A    between atoms: _52  and  _53
REMARK   23  A    between atoms: _56  and  _58
REMARK   24  A    between atoms: _58  and  _59
REMARK   25  A    between atoms: _61  and  _63
REMARK   26  A    between atoms: _63  and  _64
REMARK   27  A    between atoms: _67  and  _69
REMARK   28  A    between atoms: _69  and  _70
REMARK   29  A    between atoms: _69  and  _72
REMARK   30  A    between atoms: _72  and  _73
REMARK   31  A    between atoms: _76  and  _78
REMARK   32  A    between atoms: _78  and  _79
REMARK   33  A    between atoms: _78  and  _81
REMARK   34  A    between atoms: _81  and  _82
REMARK   35  A    between atoms: _85  and  _87
REMARK   36  A    between atoms: _87  and  _88
REMARK   37  A    between atoms: _87  and  _90
REMARK   38  A    between atoms: _90  and  _91
REMARK   39  A    between atoms: _94  and  _96
REMARK   40  A    between atoms: _96  and  _97
REMARK   41  A    between atoms: _96  and  _99
REMARK   42  A    between atoms: _102  and  _104
REMARK   43  A    between atoms: _104  and  _105
REMARK   44  A    between atoms: _104  and  _107
REMARK   45  A    between atoms: _107  and  _108
REMARK   46  A    between atoms: _108  and  _109
REMARK   47  A    between atoms: _109  and  _110
REMARK   48  A    between atoms: _110  and  _111
REMARK   49  A    between atoms: _115  and  _117
REMARK   50  A    between atoms: _117  and  _118
REMARK   51  A    between atoms: _117  and  _120
REMARK   52  A    between atoms: _120  and  _121
REMARK   53  A    between atoms: _121  and  _122
REMARK   54  A    between atoms: _124  and  _126
REMARK   55  A    between atoms: _126  and  _127
REMARK   56  A    between atoms: _126  and  _129
REMARK   57  A    between atoms: _129  and  _130
REMARK   58  A    between atoms: _133  and  _135
REMARK   59  A    between atoms: _135  and  _136
REMARK   60  A    between atoms: _138  and  _140
REMARK   61  A    between atoms: _140  and  _141
REMARK   62  A    between atoms: _143  and  _145
REMARK   63  A    between atoms: _145  and  _146
REMARK   64  A    between atoms: _145  and  _148
REMARK   65  A    between atoms: _148  and  _149
REMARK   66  A    between atoms: _152  and  _154
REMARK   67  A    between atoms: _154  and  _155
REMARK   68  A    between atoms: _157  and  _159
REMARK   69  A    between atoms: _159  and  _160
REMARK   70  A    between atoms: _162  and  _164
REMARK   71  A    between atoms: _164  and  _165
REMARK   72  A    between atoms: _164  and  _167
REMARK   73  A    between atoms: _167  and  _168
REMARK   74  A    between atoms: _174  and  _176
REMARK   75  A    between atoms: _176  and  _177
REMARK   76  A    between atoms: _176  and  _179
REMARK   77  A    between atoms: _179  and  _180
REMARK   78  A    between atoms: _183  and  _185
REMARK   79  A    between atoms: _185  and  _186
REMARK   80  A    between atoms: _185  and  _188
REMARK   81  A    between atoms: _191  and  _193
REMARK   82  A    between atoms: _193  and  _194
REMARK   83  A    between atoms: _193  and  _196
REMARK   84  A    between atoms: _196  and  _197
REMARK   85  A    between atoms: _200  and  _202
REMARK   86  A    between atoms: _202  and  _203
REMARK   87  A    between atoms: _202  and  _205
REMARK   88  A    between atoms: _205  and  _206
REMARK   89  A    between atoms: _210  and  _211
REMARK   90  A    between atoms: _216  and  _218
REMARK   91  A    between atoms: _218  and  _219
REMARK   92  A    between atoms: _218  and  _221
REMARK   93  A    between atoms: _224  and  _226
REMARK   94  A    between atoms: _226  and  _227
REMARK   95  A    between atoms: _226  and  _229
REMARK   96  A    between atoms: _229  and  _230
REMARK   97  A    between atoms: _235  and  _237
REMARK   98  A    between atoms: _237  and  _238
REMARK   99  A    between atoms: _237  and  _240
REMARK  100  A    between atoms: _240  and  _241
REMARK  101  A    between atoms: _240  and  _242
REMARK  102  A    between atoms: _244  and  _246
REMARK  103  A    between atoms: _246  and  _247
REMARK  104  A    between atoms: _246  and  _249
REMARK  105  A    between atoms: _249  and  _250
REMARK  106  A    between atoms: _253  and  _255
REMARK  107  A    between atoms: _255  and  _256
REMARK  108  A    between atoms: _258  and  _260
REMARK  109  A    between atoms: _260  and  _261
REMARK  110  A    between atoms: _260  and  _263
REMARK  111  A    between atoms: _263  and  _264
REMARK  112  A    between atoms: _264  and  _265
REMARK  113  A    between atoms: _265  and  _266
REMARK  114  A    between atoms: _275  and  _277
REMARK  115  A    between atoms: _277  and  _278
REMARK  116  A    between atoms: _277  and  _280
REMARK  117  A    between atoms: _280  and  _281
REMARK  118  A    between atoms: _286  and  _288
REMARK  119  A    between atoms: _288  and  _289
REMARK  120  A    between atoms: _288  and  _291
REMARK  121  A    between atoms: _291  and  _292
REMARK  122  A    between atoms: _292  and  _293
REMARK  123  A    between atoms: _293  and  _294
REMARK  124  A    between atoms: _303  and  _305
REMARK  125  A    between atoms: _305  and  _306
REMARK  126  A    between atoms: _305  and  _308
REMARK  127  A    between atoms: _308  and  _309
REMARK  128  A    between atoms: _312  and  _314
REMARK  129  A    between atoms: _314  and  _315
REMARK  130  A    between atoms: _314  and  _317
REMARK  131  A    between atoms: _317  and  _318
REMARK  132  A    between atoms: _321  and  _323
REMARK  133  A    between atoms: _323  and  _324
REMARK  134  A    between atoms: _323  and  _326
REMARK  135  A    between atoms: _326  and  _327
REMARK  136  A    between atoms: _332  and  _334
REMARK  137  A    between atoms: _334  and  _335
REMARK  138  A    between atoms: _334  and  _337
REMARK  139  A    between atoms: _337  and  _338
REMARK  140  A    between atoms: _341  and  _343
REMARK  141  A    between atoms: _343  and  _344
REMARK  142  A    between atoms: _346  and  _348
REMARK  143  A    between atoms: _348  and  _349
REMARK  144  A    between atoms: _352  and  _354
REMARK  145  A    between atoms: _354  and  _355
REMARK  146  A    between atoms: _354  and  _357
REMARK  147  A    between atoms: _357  and  _358
REMARK  148  A    between atoms: _361  and  _363
REMARK  149  A    between atoms: _363  and  _364
REMARK  150  A    between atoms: _363  and  _366
REMARK  151  A    between atoms: _366  and  _367
REMARK  152  A    between atoms: _370  and  _372
REMARK  153  A    between atoms: _372  and  _373
REMARK  154  A    between atoms: _372  and  _375
REMARK  155  A    between atoms: _375  and  _376
REMARK  156  A    between atoms: _379  and  _381
REMARK  157  A    between atoms: _381  and  _382
REMARK  158  A    between atoms: _381  and  _384
REMARK  159  A    between atoms: _387  and  _389
REMARK  160  A    between atoms: _389  and  _390
REMARK  161  A    between atoms: _389  and  _392
REMARK  162  A    between atoms: _392  and  _393
REMARK  163  A    between atoms: _393  and  _394
REMARK  164  A    between atoms: _394  and  _395
REMARK  165  A    between atoms: _395  and  _396
REMARK  166  A    between atoms: _400  and  _402
REMARK  167  A    between atoms: _402  and  _403
REMARK  168  A    between atoms: _402  and  _405
REMARK  169  A    between atoms: _405  and  _406
REMARK  170  A    between atoms: _406  and  _407
REMARK  171  A    between atoms: _409  and  _411
REMARK  172  A    between atoms: _411  and  _412
REMARK  173  A    between atoms: _411  and  _414
REMARK  174  A    between atoms: _414  and  _415
REMARK  175  A    between atoms: _418  and  _420
REMARK  176  A    between atoms: _420  and  _421
REMARK  177  A    between atoms: _423  and  _425
REMARK  178  A    between atoms: _425  and  _426
REMARK  179  A    between atoms: _428  and  _430
REMARK  180  A    between atoms: _430  and  _431
REMARK  181  A    between atoms: _430  and  _433
REMARK  182  A    between atoms: _433  and  _434
REMARK  183  A    between atoms: _437  and  _439
REMARK  184  A    between atoms: _439  and  _440
REMARK  185  A    between atoms: _442  and  _444
REMARK  186  A    between atoms: _444  and  _445
REMARK  187  A    between atoms: _447  and  _449
REMARK  188  A    between atoms: _449  and  _450
REMARK  189  A    between atoms: _449  and  _452
REMARK  190  A    between atoms: _452  and  _453
REMARK  191  A    between atoms: _459  and  _461
REMARK  192  A    between atoms: _461  and  _462
REMARK  193  A    between atoms: _461  and  _464
REMARK  194  A    between atoms: _464  and  _465
REMARK  195  A    between atoms: _468  and  _470
REMARK  196  A    between atoms: _470  and  _471
REMARK  197  A    between atoms: _470  and  _473
REMARK  198  A    between atoms: _473  and  _474
REMARK  199  A    between atoms: _477  and  _479
REMARK  200  A    between atoms: _479  and  _480
REMARK  201  A    between atoms: _479  and  _482
REMARK  202  A    between atoms: _482  and  _483
REMARK  203  A    between atoms: _487  and  _488
REMARK  204  A    between atoms: _493  and  _495
REMARK  205  A    between atoms: _495  and  _496
REMARK  206  A    between atoms: _495  and  _498
REMARK  207  A    between atoms: _501  and  _503
REMARK  208  A    between atoms: _503  and  _504
REMARK  209  A    between atoms: _503  and  _506
REMARK  210  A    between atoms: _506  and  _507
REMARK  211  A    between atoms: _512  and  _514
REMARK  212  A    between atoms: _514  and  _515
REMARK  213  A    between atoms: _514  and  _517
REMARK  214  A    between atoms: _517  and  _518
REMARK  215  A    between atoms: _521  and  _523
REMARK  216  A    between atoms: _523  and  _524
REMARK  217  A    between atoms: _523  and  _526
REMARK  218  A    between atoms: _526  and  _527
REMARK  219  A    between atoms: _530  and  _532
REMARK  220  A    between atoms: _532  and  _533
REMARK  221  A    between atoms: _535  and  _537
REMARK  222  A    between atoms: _537  and  _538
REMARK  223  A    between atoms: _537  and  _540
REMARK  224  A    between atoms: _540  and  _541
REMARK  225  A    between atoms: _541  and  _542
REMARK  226  A    between atoms: _542  and  _543
REMARK  227  A    between atoms: _552  and  _554
REMARK  228  A    between atoms: _554  and  _555
REMARK  229  A    between atoms: _554  and  _557
REMARK  230  A    between atoms: _557  and  _558
REMARK                            x       y       z     vdW  Elec       q    Type
REMARK                         _______ _______ _______ _____ _____    ______ ____
ROOT
ATOM      1  O   HOH     1      16.046  69.897  11.627  0.00  0.00    +0.000 OA
ENDROOT
TORSDOF 0
REMARK  Name = ../refined-set-2016/3bvb/3bvb_pocket.pdb
REMARK  230 active torsions:
REMARK  status: ('A' for Active; 'I' for Inactive)
REMARK    1  A    between atoms: _1  and  _3
REMARK    2  A    between atoms: _3  and  _4
REMARK    3  A    between atoms: _3  and  _6
REMARK    4  A    between atoms: _6  and  _7
REMARK    5  A    between atoms: _7  and  _8
REMARK    6  A    between atoms: _8  and  _9
REMARK    7  A    between atoms: _18  and  _20
REMARK    8  A    between atoms: _20  and  _21
REMARK    9  A    between atoms: _20  and  _23
REMARK   10  A    between atoms: _23  and  _24
REMARK   11  A    between atoms: _27  and  _29
REMARK   12  A    between atoms: _29  and  _30
REMARK   13  A    between atoms: _29  and  _32
REMARK   14  A    between atoms: _32  and  _33
REMARK   15  A    between atoms: _36  and  _38
REMARK   16  A    between atoms: _38  and  _39
REMARK   17  A    between atoms: _38  and  _41
REMARK   18  A    between atoms: _41  and  _42
REMARK   19  A    between atoms: _47  and  _49
REMARK   20  A    between atoms: _49  and  _50
REMARK   21  A    between atoms: _49  and  _52
REMARK   22  A    between atoms: _52  and  _53
REMARK   23  A    between atoms: _56  and  _58
REMARK   24  A    between atoms: _58  and  _59
REMARK   25  A    between atoms: _61  and  _63
REMARK   26  A    between atoms: _63  and  _64
REMARK   27  A    between atoms: _67  and  _69
REMARK   28  A    between atoms: _69  and  _70
REMARK   29  A    between atoms: _69  and  _72
REMARK   30  A    between atoms: _72  and  _73
REMARK   31  A    between atoms: _76  and  _78
REMARK   32  A    between atoms: _78  and  _79
REMARK   33  A    between atoms: _78  and  _81
REMARK   34  A    between atoms: _81  and  _82
REMARK   35  A    between atoms: _85  and  _87
REMARK   36  A    between atoms: _87  and  _88
REMARK   37  A    between atoms: _87  and  _90
REMARK   38  A    between atoms: _90  and  _91
REMARK   39  A    between atoms: _94  and  _96
REMARK   40  A    between atoms: _96  and  _97
REMARK   41  A    between atoms: _96  and  _99
REMARK   42  A    between atoms: _102  and  _104
REMARK   43  A    between atoms: _104  and  _105
REMARK   44  A    between atoms: _104  and  _107
REMARK   45  A    between atoms: _107  and  _108
REMARK   46  A    between atoms: _108  and  _109
REMARK   47  A    between atoms: _109  and  _110
REMARK   48  A    between atoms: _110  and  _111
REMARK   49  A    between atoms: _115  and  _117
REMARK   50  A    between atoms: _117  and  _118
REMARK   51  A    between atoms: _117  and  _120
REMARK   52  A    between atoms: _120  and  _121
REMARK   53  A    between atoms: _121  and  _122
REMARK   54  A    between atoms: _124  and  _126
REMARK   55  A    between atoms: _126  and  _127
REMARK   56  A    between atoms: _126  and  _129
REMARK   57  A    between atoms: _129  and  _130
REMARK   58  A    between atoms: _133  and  _135
REMARK   59  A    between atoms: _135  and  _136
REMARK   60  A    between atoms: _138  and  _140
REMARK   61  A    between atoms: _140  and  _141
REMARK   62  A    between atoms: _143  and  _145
REMARK   63  A    between atoms: _145  and  _146
REMARK   64  A    between atoms: _145  and  _148
REMARK   65  A    between atoms: _148  and  _149
REMARK   66  A    between atoms: _152  and  _154
REMARK   67  A    between atoms: _154  and  _155
REMARK   68  A    between atoms: _157  and  _159
REMARK   69  A    between atoms: _159  and  _160
REMARK   70  A    between atoms: _162  and  _164
REMARK   71  A    between atoms: _164  and  _165
REMARK   72  A    between atoms: _164  and  _167
REMARK   73  A    between atoms: _167  and  _168
REMARK   74  A    between atoms: _174  and  _176
REMARK   75  A    between atoms: _176  and  _177
REMARK   76  A    between atoms: _176  and  _179
REMARK   77  A    between atoms: _179  and  _180
REMARK   78  A    between atoms: _183  and  _185
REMARK   79  A    between atoms: _185  and  _186
REMARK   80  A    between atoms: _185  and  _188
REMARK   81  A    between atoms: _191  and  _193
REMARK   82  A    between atoms: _193  and  _194
REMARK   83  A    between atoms: _193  and  _196
REMARK   84  A    between atoms: _196  and  _197
REMARK   85  A    between atoms: _200  and  _202
REMARK   86  A    between atoms: _202  and  _203
REMARK   87  A    between atoms: _202  and  _205
REMARK   88  A    between atoms: _205  and  _206
REMARK   89  A    between atoms: _210  and  _211
REMARK   90  A    between atoms: _216  and  _218
REMARK   91  A    between atoms: _218  and  _219
REMARK   92  A    between atoms: _218  and  _221
REMARK   93  A    between atoms: _224  and  _226
REMARK   94  A    between atoms: _226  and  _227
REMARK   95  A    between atoms: _226  and  _229
REMARK   96  A    between atoms: _229  and  _230
REMARK   97  A    between atoms: _235  and  _237
REMARK   98  A    between atoms: _237  and  _238
REMARK   99  A    between atoms: _237  and  _240
REMARK  100  A    between atoms: _240  and  _241
REMARK  101  A    between atoms: _240  and  _242
REMARK  102  A    between atoms: _244  and  _246
REMARK  103  A    between atoms: _246  and  _247
REMARK  104  A    between atoms: _246  and  _249
REMARK  105  A    between atoms: _249  and  _250
REMARK  106  A    between atoms: _253  and  _255
REMARK  107  A    between atoms: _255  and  _256
REMARK  108  A    between atoms: _258  and  _260
REMARK  109  A    between atoms: _260  and  _261
REMARK  110  A    between atoms: _260  and  _263
REMARK  111  A    between atoms: _263  and  _264
REMARK  112  A    between atoms: _264  and  _265
REMARK  113  A    between atoms: _265  and  _266
REMARK  114  A    between atoms: _275  and  _277
REMARK  115  A    between atoms: _277  and  _278
REMARK  116  A    between atoms: _277  and  _280
REMARK  117  A    between atoms: _280  and  _281
REMARK  118  A    between atoms: _286  and  _288
REMARK  119  A    between atoms: _288  and  _289
REMARK  120  A    between atoms: _288  and  _291
REMARK  121  A    between atoms: _291  and  _292
REMARK  122  A    between atoms: _292  and  _293
REMARK  123  A    between atoms: _293  and  _294
REMARK  124  A    between atoms: _303  and  _305
REMARK  125  A    between atoms: _305  and  _306
REMARK  126  A    between atoms: _305  and  _308
REMARK  127  A    between atoms: _308  and  _309
REMARK  128  A    between atoms: _312  and  _314
REMARK  129  A    between atoms: _314  and  _315
REMARK  130  A    between atoms: _314  and  _317
REMARK  131  A    between atoms: _317  and  _318
REMARK  132  A    between atoms: _321  and  _323
REMARK  133  A    between atoms: _323  and  _324
REMARK  134  A    between atoms: _323  and  _326
REMARK  135  A    between atoms: _326  and  _327
REMARK  136  A    between atoms: _332  and  _334
REMARK  137  A    between atoms: _334  and  _335
REMARK  138  A    between atoms: _334  and  _337
REMARK  139  A    between atoms: _337  and  _338
REMARK  140  A    between atoms: _341  and  _343
REMARK  141  A    between atoms: _343  and  _344
REMARK  142  A    between atoms: _346  and  _348
REMARK  143  A    between atoms: _348  and  _349
REMARK  144  A    between atoms: _352  and  _354
REMARK  145  A    between atoms: _354  and  _355
REMARK  146  A    between atoms: _354  and  _357
REMARK  147  A    between atoms: _357  and  _358
REMARK  148  A    between atoms: _361  and  _363
REMARK  149  A    between atoms: _363  and  _364
REMARK  150  A    between atoms: _363  and  _366
REMARK  151  A    between atoms: _366  and  _367
REMARK  152  A    between atoms: _370  and  _372
REMARK  153  A    between atoms: _372  and  _373
REMARK  154  A    between atoms: _372  and  _375
REMARK  155  A    between atoms: _375  and  _376
REMARK  156  A    between atoms: _379  and  _381
REMARK  157  A    between atoms: _381  and  _382
REMARK  158  A    between atoms: _381  and  _384
REMARK  159  A    between atoms: _387  and  _389
REMARK  160  A    between atoms: _389  and  _390
REMARK  161  A    between atoms: _389  and  _392
REMARK  162  A    between atoms: _392  and  _393
REMARK  163  A    between atoms: _393  and  _394
REMARK  164  A    between atoms: _394  and  _395
REMARK  165  A    between atoms: _395  and  _396
REMARK  166  A    between atoms: _400  and  _402
REMARK  167  A    between atoms: _402  and  _403
REMARK  168  A    between atoms: _402  and  _405
REMARK  169  A    between atoms: _405  and  _406
REMARK  170  A    between atoms: _406  and  _407
REMARK  171  A    between atoms: _409  and  _411
REMARK  172  A    between atoms: _411  and  _412
REMARK  173  A    between atoms: _411  and  _414
REMARK  174  A    between atoms: _414  and  _415
REMARK  175  A    between atoms: _418  and  _420
REMARK  176  A    between atoms: _420  and  _421
REMARK  177  A    between atoms: _423  and  _425
REMARK  178  A    between atoms: _425  and  _426
REMARK  179  A    between atoms: _428  and  _430
REMARK  180  A    between atoms: _430  and  _431
REMARK  181  A    between atoms: _430  and  _433
REMARK  182  A    between atoms: _433  and  _434
REMARK  183  A    between atoms: _437  and  _439
REMARK  184  A    between atoms: _439  and  _440
REMARK  185  A    between atoms: _442  and  _444
REMARK  186  A    between atoms: _444  and  _445
REMARK  187  A    between atoms: _447  and  _449
REMARK  188  A    between atoms: _449  and  _450
REMARK  189  A    between atoms: _449  and  _452
REMARK  190  A    between atoms: _452  and  _453
REMARK  191  A    between atoms: _459  and  _461
REMARK  192  A    between atoms: _461  and  _462
REMARK  193  A    between atoms: _461  and  _464
REMARK  194  A    between atoms: _464  and  _465
REMARK  195  A    between atoms: _468  and  _470
REMARK  196  A    between atoms: _470  and  _471
REMARK  197  A    between atoms: _470  and  _473
REMARK  198  A    between atoms: _473  and  _474
REMARK  199  A    between atoms: _477  and  _479
REMARK  200  A    between atoms: _479  and  _480
REMARK  201  A    between atoms: _479  and  _482
REMARK  202  A    between atoms: _482  and  _483
REMARK  203  A    between atoms: _487  and  _488
REMARK  204  A    between atoms: _493  and  _495
REMARK  205  A    between atoms: _495  and  _496
REMARK  206  A    between atoms: _495  and  _498
REMARK  207  A    between atoms: _501  and  _503
REMARK  208  A    between atoms: _503  and  _504
REMARK  209  A    between atoms: _503  and  _506
REMARK  210  A    between atoms: _506  and  _507
REMARK  211  A    between atoms: _512  and  _514
REMARK  212  A    between atoms: _514  and  _515
REMARK  213  A    between atoms: _514  and  _517
REMARK  214  A    between atoms: _517  and  _518
REMARK  215  A    between atoms: _521  and  _523
REMARK  216  A    between atoms: _523  and  _524
REMARK  217  A    between atoms: _523  and  _526
REMARK  218  A    between atoms: _526  and  _527
REMARK  219  A    between atoms: _530  and  _532
REMARK  220  A    between atoms: _532  and  _533
REMARK  221  A    between atoms: _535  and  _537
REMARK  222  A    between atoms: _537  and  _538
REMARK  223  A    between atoms: _537  and  _540
REMARK  224  A    between atoms: _540  and  _541
REMARK  225  A    between atoms: _541  and  _542
REMARK  226  A    between atoms: _542  and  _543
REMARK  227  A    between atoms: _552  and  _554
REMARK  228  A    between atoms: _554  and  _555
REMARK  229  A    between atoms: _554  and  _557
REMARK  230  A    between atoms: _557  and  _558
REMARK                            x       y       z     vdW  Elec       q    Type
REMARK                         _______ _______ _______ _____ _____    ______ ____
ROOT
ATOM      1  O   HOH     1      21.909  70.254  25.116  0.00  0.00    +0.000 OA
ENDROOT
TORSDOF 0
REMARK  Name = ../refined-set-2016/3bvb/3bvb_pocket.pdb
REMARK  230 active torsions:
REMARK  status: ('A' for Active; 'I' for Inactive)
REMARK    1  A    between atoms: _1  and  _3
REMARK    2  A    between atoms: _3  and  _4
REMARK    3  A    between atoms: _3  and  _6
REMARK    4  A    between atoms: _6  and  _7
REMARK    5  A    between atoms: _7  and  _8
REMARK    6  A    between atoms: _8  and  _9
REMARK    7  A    between atoms: _18  and  _20
REMARK    8  A    between atoms: _20  and  _21
REMARK    9  A    between atoms: _20  and  _23
REMARK   10  A    between atoms: _23  and  _24
REMARK   11  A    between atoms: _27  and  _29
REMARK   12  A    between atoms: _29  and  _30
REMARK   13  A    between atoms: _29  and  _32
REMARK   14  A    between atoms: _32  and  _33
REMARK   15  A    between atoms: _36  and  _38
REMARK   16  A    between atoms: _38  and  _39
REMARK   17  A    between atoms: _38  and  _41
REMARK   18  A    between atoms: _41  and  _42
REMARK   19  A    between atoms: _47  and  _49
REMARK   20  A    between atoms: _49  and  _50
REMARK   21  A    between atoms: _49  and  _52
REMARK   22  A    between atoms: _52  and  _53
REMARK   23  A    between atoms: _56  and  _58
REMARK   24  A    between atoms: _58  and  _59
REMARK   25  A    between atoms: _61  and  _63
REMARK   26  A    between atoms: _63  and  _64
REMARK   27  A    between atoms: _67  and  _69
REMARK   28  A    between atoms: _69  and  _70
REMARK   29  A    between atoms: _69  and  _72
REMARK   30  A    between atoms: _72  and  _73
REMARK   31  A    between atoms: _76  and  _78
REMARK   32  A    between atoms: _78  and  _79
REMARK   33  A    between atoms: _78  and  _81
REMARK   34  A    between atoms: _81  and  _82
REMARK   35  A    between atoms: _85  and  _87
REMARK   36  A    between atoms: _87  and  _88
REMARK   37  A    between atoms: _87  and  _90
REMARK   38  A    between atoms: _90  and  _91
REMARK   39  A    between atoms: _94  and  _96
REMARK   40  A    between atoms: _96  and  _97
REMARK   41  A    between atoms: _96  and  _99
REMARK   42  A    between atoms: _102  and  _104
REMARK   43  A    between atoms: _104  and  _105
REMARK   44  A    between atoms: _104  and  _107
REMARK   45  A    between atoms: _107  and  _108
REMARK   46  A    between atoms: _108  and  _109
REMARK   47  A    between atoms: _109  and  _110
REMARK   48  A    between atoms: _110  and  _111
REMARK   49  A    between atoms: _115  and  _117
REMARK   50  A    between atoms: _117  and  _118
REMARK   51  A    between atoms: _117  and  _120
REMARK   52  A    between atoms: _120  and  _121
REMARK   53  A    between atoms: _121  and  _122
REMARK   54  A    between atoms: _124  and  _126
REMARK   55  A    between atoms: _126  and  _127
REMARK   56  A    between atoms: _126  and  _129
REMARK   57  A    between atoms: _129  and  _130
REMARK   58  A    between atoms: _133  and  _135
REMARK   59  A    between atoms: _135  and  _136
REMARK   60  A    between atoms: _138  and  _140
REMARK   61  A    between atoms: _140  and  _141
REMARK   62  A    between atoms: _143  and  _145
REMARK   63  A    between atoms: _145  and  _146
REMARK   64  A    between atoms: _145  and  _148
REMARK   65  A    between atoms: _148  and  _149
REMARK   66  A    between atoms: _152  and  _154
REMARK   67  A    between atoms: _154  and  _155
REMARK   68  A    between atoms: _157  and  _159
REMARK   69  A    between atoms: _159  and  _160
REMARK   70  A    between atoms: _162  and  _164
REMARK   71  A    between atoms: _164  and  _165
REMARK   72  A    between atoms: _164  and  _167
REMARK   73  A    between atoms: _167  and  _168
REMARK   74  A    between atoms: _174  and  _176
REMARK   75  A    between atoms: _176  and  _177
REMARK   76  A    between atoms: _176  and  _179
REMARK   77  A    between atoms: _179  and  _180
REMARK   78  A    between atoms: _183  and  _185
REMARK   79  A    between atoms: _185  and  _186
REMARK   80  A    between atoms: _185  and  _188
REMARK   81  A    between atoms: _191  and  _193
REMARK   82  A    between atoms: _193  and  _194
REMARK   83  A    between atoms: _193  and  _196
REMARK   84  A    between atoms: _196  and  _197
REMARK   85  A    between atoms: _200  and  _202
REMARK   86  A    between atoms: _202  and  _203
REMARK   87  A    between atoms: _202  and  _205
REMARK   88  A    between atoms: _205  and  _206
REMARK   89  A    between atoms: _210  and  _211
REMARK   90  A    between atoms: _216  and  _218
REMARK   91  A    between atoms: _218  and  _219
REMARK   92  A    between atoms: _218  and  _221
REMARK   93  A    between atoms: _224  and  _226
REMARK   94  A    between atoms: _226  and  _227
REMARK   95  A    between atoms: _226  and  _229
REMARK   96  A    between atoms: _229  and  _230
REMARK   97  A    between atoms: _235  and  _237
REMARK   98  A    between atoms: _237  and  _238
REMARK   99  A    between atoms: _237  and  _240
REMARK  100  A    between atoms: _240  and  _241
REMARK  101  A    between atoms: _240  and  _242
REMARK  102  A    between atoms: _244  and  _246
REMARK  103  A    between atoms: _246  and  _247
REMARK  104  A    between atoms: _246  and  _249
REMARK  105  A    between atoms: _249  and  _250
REMARK  106  A    between atoms: _253  and  _255
REMARK  107  A    between atoms: _255  and  _256
REMARK  108  A    between atoms: _258  and  _260
REMARK  109  A    between atoms: _260  and  _261
REMARK  110  A    between atoms: _260  and  _263
REMARK  111  A    between atoms: _263  and  _264
REMARK  112  A    between atoms: _264  and  _265
REMARK  113  A    between atoms: _265  and  _266
REMARK  114  A    between atoms: _275  and  _277
REMARK  115  A    between atoms: _277  and  _278
REMARK  116  A    between atoms: _277  and  _280
REMARK  117  A    between atoms: _280  and  _281
REMARK  118  A    between atoms: _286  and  _288
REMARK  119  A    between atoms: _288  and  _289
REMARK  120  A    between atoms: _288  and  _291
REMARK  121  A    between atoms: _291  and  _292
REMARK  122  A    between atoms: _292  and  _293
REMARK  123  A    between atoms: _293  and  _294
REMARK  124  A    between atoms: _303  and  _305
REMARK  125  A    between atoms: _305  and  _306
REMARK  126  A    between atoms: _305  and  _308
REMARK  127  A    between atoms: _308  and  _309
REMARK  128  A    between atoms: _312  and  _314
REMARK  129  A    between atoms: _314  and  _315
REMARK  130  A    between atoms: _314  and  _317
REMARK  131  A    between atoms: _317  and  _318
REMARK  132  A    between atoms: _321  and  _323
REMARK  133  A    between atoms: _323  and  _324
REMARK  134  A    between atoms: _323  and  _326
REMARK  135  A    between atoms: _326  and  _327
REMARK  136  A    between atoms: _332  and  _334
REMARK  137  A    between atoms: _334  and  _335
REMARK  138  A    between atoms: _334  and  _337
REMARK  139  A    between atoms: _337  and  _338
REMARK  140  A    between atoms: _341  and  _343
REMARK  141  A    between atoms: _343  and  _344
REMARK  142  A    between atoms: _346  and  _348
REMARK  143  A    between atoms: _348  and  _349
REMARK  144  A    between atoms: _352  and  _354
REMARK  145  A    between atoms: _354  and  _355
REMARK  146  A    between atoms: _354  and  _357
REMARK  147  A    between atoms: _357  and  _358
REMARK  148  A    between atoms: _361  and  _363
REMARK  149  A    between atoms: _363  and  _364
REMARK  150  A    between atoms: _363  and  _366
REMARK  151  A    between atoms: _366  and  _367
REMARK  152  A    between atoms: _370  and  _372
REMARK  153  A    between atoms: _372  and  _373
REMARK  154  A    between atoms: _372  and  _375
REMARK  155  A    between atoms: _375  and  _376
REMARK  156  A    between atoms: _379  and  _381
REMARK  157  A    between atoms: _381  and  _382
REMARK  158  A    between atoms: _381  and  _384
REMARK  159  A    between atoms: _387  and  _389
REMARK  160  A    between atoms: _389  and  _390
REMARK  161  A    between atoms: _389  and  _392
REMARK  162  A    between atoms: _392  and  _393
REMARK  163  A    between atoms: _393  and  _394
REMARK  164  A    between atoms: _394  and  _395
REMARK  165  A    between atoms: _395  and  _396
REMARK  166  A    between atoms: _400  and  _402
REMARK  167  A    between atoms: _402  and  _403
REMARK  168  A    between atoms: _402  and  _405
REMARK  169  A    between atoms: _405  and  _406
REMARK  170  A    between atoms: _406  and  _407
REMARK  171  A    between atoms: _409  and  _411
REMARK  172  A    between atoms: _411  and  _412
REMARK  173  A    between atoms: _411  and  _414
REMARK  174  A    between atoms: _414  and  _415
REMARK  175  A    between atoms: _418  and  _420
REMARK  176  A    between atoms: _420  and  _421
REMARK  177  A    between atoms: _423  and  _425
REMARK  178  A    between atoms: _425  and  _426
REMARK  179  A    between atoms: _428  and  _430
REMARK  180  A    between atoms: _430  and  _431
REMARK  181  A    between atoms: _430  and  _433
REMARK  182  A    between atoms: _433  and  _434
REMARK  183  A    between atoms: _437  and  _439
REMARK  184  A    between atoms: _439  and  _440
REMARK  185  A    between atoms: _442  and  _444
REMARK  186  A    between atoms: _444  and  _445
REMARK  187  A    between atoms: _447  and  _449
REMARK  188  A    between atoms: _449  and  _450
REMARK  189  A    between atoms: _449  and  _452
REMARK  190  A    between atoms: _452  and  _453
REMARK  191  A    between atoms: _459  and  _461
REMARK  192  A    between atoms: _461  and  _462
REMARK  193  A    between atoms: _461  and  _464
REMARK  194  A    between atoms: _464  and  _465
REMARK  195  A    between atoms: _468  and  _470
REMARK  196  A    between atoms: _470  and  _471
REMARK  197  A    between atoms: _470  and  _473
REMARK  198  A    between atoms: _473  and  _474
REMARK  199  A    between atoms: _477  and  _479
REMARK  200  A    between atoms: _479  and  _480
REMARK  201  A    between atoms: _479  and  _482
REMARK  202  A    between atoms: _482  and  _483
REMARK  203  A    between atoms: _487  and  _488
REMARK  204  A    between atoms: _493  and  _495
REMARK  205  A    between atoms: _495  and  _496
REMARK  206  A    between atoms: _495  and  _498
REMARK  207  A    between atoms: _501  and  _503
REMARK  208  A    between atoms: _503  and  _504
REMARK  209  A    between atoms: _503  and  _506
REMARK  210  A    between atoms: _506  and  _507
REMARK  211  A    between atoms: _512  and  _514
REMARK  212  A    between atoms: _514  and  _515
REMARK  213  A    between atoms: _514  and  _517
REMARK  214  A    between atoms: _517  and  _518
REMARK  215  A    between atoms: _521  and  _523
REMARK  216  A    between atoms: _523  and  _524
REMARK  217  A    between atoms: _523  and  _526
REMARK  218  A    between atoms: _526  and  _527
REMARK  219  A    between atoms: _530  and  _532
REMARK  220  A    between atoms: _532  and  _533
REMARK  221  A    between atoms: _535  and  _537
REMARK  222  A    between atoms: _537  and  _538
REMARK  223  A    between atoms: _537  and  _540
REMARK  224  A    between atoms: _540  and  _541
REMARK  225  A    between atoms: _541  and  _542
REMARK  226  A    between atoms: _542  and  _543
REMARK  227  A    between atoms: _552  and  _554
REMARK  228  A    between atoms: _554  and  _555
REMARK  229  A    between atoms: _554  and  _557
REMARK  230  A    between atoms: _557  and  _558
REMARK                            x       y       z     vdW  Elec       q    Type
REMARK                         _______ _______ _______ _____ _____    ______ ____
ROOT
ATOM      1  O   HOH     1      24.544  68.171  16.610  0.00  0.00    +0.000 OA
ENDROOT
TORSDOF 0
REMARK  Name = ../refined-set-2016/3bvb/3bvb_pocket.pdb
REMARK  230 active torsions:
REMARK  status: ('A' for Active; 'I' for Inactive)
REMARK    1  A    between atoms: _1  and  _3
REMARK    2  A    between atoms: _3  and  _4
REMARK    3  A    between atoms: _3  and  _6
REMARK    4  A    between atoms: _6  and  _7
REMARK    5  A    between atoms: _7  and  _8
REMARK    6  A    between atoms: _8  and  _9
REMARK    7  A    between atoms: _18  and  _20
REMARK    8  A    between atoms: _20  and  _21
REMARK    9  A    between atoms: _20  and  _23
REMARK   10  A    between atoms: _23  and  _24
REMARK   11  A    between atoms: _27  and  _29
REMARK   12  A    between atoms: _29  and  _30
REMARK   13  A    between atoms: _29  and  _32
REMARK   14  A    between atoms: _32  and  _33
REMARK   15  A    between atoms: _36  and  _38
REMARK   16  A    between atoms: _38  and  _39
REMARK   17  A    between atoms: _38  and  _41
REMARK   18  A    between atoms: _41  and  _42
REMARK   19  A    between atoms: _47  and  _49
REMARK   20  A    between atoms: _49  and  _50
REMARK   21  A    between atoms: _49  and  _52
REMARK   22  A    between atoms: _52  and  _53
REMARK   23  A    between atoms: _56  and  _58
REMARK   24  A    between atoms: _58  and  _59
REMARK   25  A    between atoms: _61  and  _63
REMARK   26  A    between atoms: _63  and  _64
REMARK   27  A    between atoms: _67  and  _69
REMARK   28  A    between atoms: _69  and  _70
REMARK   29  A    between atoms: _69  and  _72
REMARK   30  A    between atoms: _72  and  _73
REMARK   31  A    between atoms: _76  and  _78
REMARK   32  A    between atoms: _78  and  _79
REMARK   33  A    between atoms: _78  and  _81
REMARK   34  A    between atoms: _81  and  _82
REMARK   35  A    between atoms: _85  and  _87
REMARK   36  A    between atoms: _87  and  _88
REMARK   37  A    between atoms: _87  and  _90
REMARK   38  A    between atoms: _90  and  _91
REMARK   39  A    between atoms: _94  and  _96
REMARK   40  A    between atoms: _96  and  _97
REMARK   41  A    between atoms: _96  and  _99
REMARK   42  A    between atoms: _102  and  _104
REMARK   43  A    between atoms: _104  and  _105
REMARK   44  A    between atoms: _104  and  _107
REMARK   45  A    between atoms: _107  and  _108
REMARK   46  A    between atoms: _108  and  _109
REMARK   47  A    between atoms: _109  and  _110
REMARK   48  A    between atoms: _110  and  _111
REMARK   49  A    between atoms: _115  and  _117
REMARK   50  A    between atoms: _117  and  _118
REMARK   51  A    between atoms: _117  and  _120
REMARK   52  A    between atoms: _120  and  _121
REMARK   53  A    between atoms: _121  and  _122
REMARK   54  A    between atoms: _124  and  _126
REMARK   55  A    between atoms: _126  and  _127
REMARK   56  A    between atoms: _126  and  _129
REMARK   57  A    between atoms: _129  and  _130
REMARK   58  A    between atoms: _133  and  _135
REMARK   59  A    between atoms: _135  and  _136
REMARK   60  A    between atoms: _138  and  _140
REMARK   61  A    between atoms: _140  and  _141
REMARK   62  A    between atoms: _143  and  _145
REMARK   63  A    between atoms: _145  and  _146
REMARK   64  A    between atoms: _145  and  _148
REMARK   65  A    between atoms: _148  and  _149
REMARK   66  A    between atoms: _152  and  _154
REMARK   67  A    between atoms: _154  and  _155
REMARK   68  A    between atoms: _157  and  _159
REMARK   69  A    between atoms: _159  and  _160
REMARK   70  A    between atoms: _162  and  _164
REMARK   71  A    between atoms: _164  and  _165
REMARK   72  A    between atoms: _164  and  _167
REMARK   73  A    between atoms: _167  and  _168
REMARK   74  A    between atoms: _174  and  _176
REMARK   75  A    between atoms: _176  and  _177
REMARK   76  A    between atoms: _176  and  _179
REMARK   77  A    between atoms: _179  and  _180
REMARK   78  A    between atoms: _183  and  _185
REMARK   79  A    between atoms: _185  and  _186
REMARK   80  A    between atoms: _185  and  _188
REMARK   81  A    between atoms: _191  and  _193
REMARK   82  A    between atoms: _193  and  _194
REMARK   83  A    between atoms: _193  and  _196
REMARK   84  A    between atoms: _196  and  _197
REMARK   85  A    between atoms: _200  and  _202
REMARK   86  A    between atoms: _202  and  _203
REMARK   87  A    between atoms: _202  and  _205
REMARK   88  A    between atoms: _205  and  _206
REMARK   89  A    between atoms: _210  and  _211
REMARK   90  A    between atoms: _216  and  _218
REMARK   91  A    between atoms: _218  and  _219
REMARK   92  A    between atoms: _218  and  _221
REMARK   93  A    between atoms: _224  and  _226
REMARK   94  A    between atoms: _226  and  _227
REMARK   95  A    between atoms: _226  and  _229
REMARK   96  A    between atoms: _229  and  _230
REMARK   97  A    between atoms: _235  and  _237
REMARK   98  A    between atoms: _237  and  _238
REMARK   99  A    between atoms: _237  and  _240
REMARK  100  A    between atoms: _240  and  _241
REMARK  101  A    between atoms: _240  and  _242
REMARK  102  A    between atoms: _244  and  _246
REMARK  103  A    between atoms: _246  and  _247
REMARK  104  A    between atoms: _246  and  _249
REMARK  105  A    between atoms: _249  and  _250
REMARK  106  A    between atoms: _253  and  _255
REMARK  107  A    between atoms: _255  and  _256
REMARK  108  A    between atoms: _258  and  _260
REMARK  109  A    between atoms: _260  and  _261
REMARK  110  A    between atoms: _260  and  _263
REMARK  111  A    between atoms: _263  and  _264
REMARK  112  A    between atoms: _264  and  _265
REMARK  113  A    between atoms: _265  and  _266
REMARK  114  A    between atoms: _275  and  _277
REMARK  115  A    between atoms: _277  and  _278
REMARK  116  A    between atoms: _277  and  _280
REMARK  117  A    between atoms: _280  and  _281
REMARK  118  A    between atoms: _286  and  _288
REMARK  119  A    between atoms: _288  and  _289
REMARK  120  A    between atoms: _288  and  _291
REMARK  121  A    between atoms: _291  and  _292
REMARK  122  A    between atoms: _292  and  _293
REMARK  123  A    between atoms: _293  and  _294
REMARK  124  A    between atoms: _303  and  _305
REMARK  125  A    between atoms: _305  and  _306
REMARK  126  A    between atoms: _305  and  _308
REMARK  127  A    between atoms: _308  and  _309
REMARK  128  A    between atoms: _312  and  _314
REMARK  129  A    between atoms: _314  and  _315
REMARK  130  A    between atoms: _314  and  _317
REMARK  131  A    between atoms: _317  and  _318
REMARK  132  A    between atoms: _321  and  _323
REMARK  133  A    between atoms: _323  and  _324
REMARK  134  A    between atoms: _323  and  _326
REMARK  135  A    between atoms: _326  and  _327
REMARK  136  A    between atoms: _332  and  _334
REMARK  137  A    between atoms: _334  and  _335
REMARK  138  A    between atoms: _334  and  _337
REMARK  139  A    between atoms: _337  and  _338
REMARK  140  A    between atoms: _341  and  _343
REMARK  141  A    between atoms: _343  and  _344
REMARK  142  A    between atoms: _346  and  _348
REMARK  143  A    between atoms: _348  and  _349
REMARK  144  A    between atoms: _352  and  _354
REMARK  145  A    between atoms: _354  and  _355
REMARK  146  A    between atoms: _354  and  _357
REMARK  147  A    between atoms: _357  and  _358
REMARK  148  A    between atoms: _361  and  _363
REMARK  149  A    between atoms: _363  and  _364
REMARK  150  A    between atoms: _363  and  _366
REMARK  151  A    between atoms: _366  and  _367
REMARK  152  A    between atoms: _370  and  _372
REMARK  153  A    between atoms: _372  and  _373
REMARK  154  A    between atoms: _372  and  _375
REMARK  155  A    between atoms: _375  and  _376
REMARK  156  A    between atoms: _379  and  _381
REMARK  157  A    between atoms: _381  and  _382
REMARK  158  A    between atoms: _381  and  _384
REMARK  159  A    between atoms: _387  and  _389
REMARK  160  A    between atoms: _389  and  _390
REMARK  161  A    between atoms: _389  and  _392
REMARK  162  A    between atoms: _392  and  _393
REMARK  163  A    between atoms: _393  and  _394
REMARK  164  A    between atoms: _394  and  _395
REMARK  165  A    between atoms: _395  and  _396
REMARK  166  A    between atoms: _400  and  _402
REMARK  167  A    between atoms: _402  and  _403
REMARK  168  A    between atoms: _402  and  _405
REMARK  169  A    between atoms: _405  and  _406
REMARK  170  A    between atoms: _406  and  _407
REMARK  171  A    between atoms: _409  and  _411
REMARK  172  A    between atoms: _411  and  _412
REMARK  173  A    between atoms: _411  and  _414
REMARK  174  A    between atoms: _414  and  _415
REMARK  175  A    between atoms: _418  and  _420
REMARK  176  A    between atoms: _420  and  _421
REMARK  177  A    between atoms: _423  and  _425
REMARK  178  A    between atoms: _425  and  _426
REMARK  179  A    between atoms: _428  and  _430
REMARK  180  A    between atoms: _430  and  _431
REMARK  181  A    between atoms: _430  and  _433
REMARK  182  A    between atoms: _433  and  _434
REMARK  183  A    between atoms: _437  and  _439
REMARK  184  A    between atoms: _439  and  _440
REMARK  185  A    between atoms: _442  and  _444
REMARK  186  A    between atoms: _444  and  _445
REMARK  187  A    between atoms: _447  and  _449
REMARK  188  A    between atoms: _449  and  _450
REMARK  189  A    between atoms: _449  and  _452
REMARK  190  A    between atoms: _452  and  _453
REMARK  191  A    between atoms: _459  and  _461
REMARK  192  A    between atoms: _461  and  _462
REMARK  193  A    between atoms: _461  and  _464
REMARK  194  A    between atoms: _464  and  _465
REMARK  195  A    between atoms: _468  and  _470
REMARK  196  A    between atoms: _470  and  _471
REMARK  197  A    between atoms: _470  and  _473
REMARK  198  A    between atoms: _473  and  _474
REMARK  199  A    between atoms: _477  and  _479
REMARK  200  A    between atoms: _479  and  _480
REMARK  201  A    between atoms: _479  and  _482
REMARK  202  A    between atoms: _482  and  _483
REMARK  203  A    between atoms: _487  and  _488
REMARK  204  A    between atoms: _493  and  _495
REMARK  205  A    between atoms: _495  and  _496
REMARK  206  A    between atoms: _495  and  _498
REMARK  207  A    between atoms: _501  and  _503
REMARK  208  A    between atoms: _503  and  _504
REMARK  209  A    between atoms: _503  and  _506
REMARK  210  A    between atoms: _506  and  _507
REMARK  211  A    between atoms: _512  and  _514
REMARK  212  A    between atoms: _514  and  _515
REMARK  213  A    between atoms: _514  and  _517
REMARK  214  A    between atoms: _517  and  _518
REMARK  215  A    between atoms: _521  and  _523
REMARK  216  A    between atoms: _523  and  _524
REMARK  217  A    between atoms: _523  and  _526
REMARK  218  A    between atoms: _526  and  _527
REMARK  219  A    between atoms: _530  and  _532
REMARK  220  A    between atoms: _532  and  _533
REMARK  221  A    between atoms: _535  and  _537
REMARK  222  A    between atoms: _537  and  _538
REMARK  223  A    between atoms: _537  and  _540
REMARK  224  A    between atoms: _540  and  _541
REMARK  225  A    between atoms: _541  and  _542
REMARK  226  A    between atoms: _542  and  _543
REMARK  227  A    between atoms: _552  and  _554
REMARK  228  A    between atoms: _554  and  _555
REMARK  229  A    between atoms: _554  and  _557
REMARK  230  A    between atoms: _557  and  _558
REMARK                            x       y       z     vdW  Elec       q    Type
REMARK                         _______ _______ _______ _____ _____    ______ ____
ROOT
ATOM      1  O   HOH     1       9.893  68.383   8.673  0.00  0.00    +0.000 OA
ENDROOT
TORSDOF 0
REMARK  Name = ../refined-set-2016/3bvb/3bvb_pocket.pdb
REMARK  230 active torsions:
REMARK  status: ('A' for Active; 'I' for Inactive)
REMARK    1  A    between atoms: _1  and  _3
REMARK    2  A    between atoms: _3  and  _4
REMARK    3  A    between atoms: _3  and  _6
REMARK    4  A    between atoms: _6  and  _7
REMARK    5  A    between atoms: _7  and  _8
REMARK    6  A    between atoms: _8  and  _9
REMARK    7  A    between atoms: _18  and  _20
REMARK    8  A    between atoms: _20  and  _21
REMARK    9  A    between atoms: _20  and  _23
REMARK   10  A    between atoms: _23  and  _24
REMARK   11  A    between atoms: _27  and  _29
REMARK   12  A    between atoms: _29  and  _30
REMARK   13  A    between atoms: _29  and  _32
REMARK   14  A    between atoms: _32  and  _33
REMARK   15  A    between atoms: _36  and  _38
REMARK   16  A    between atoms: _38  and  _39
REMARK   17  A    between atoms: _38  and  _41
REMARK   18  A    between atoms: _41  and  _42
REMARK   19  A    between atoms: _47  and  _49
REMARK   20  A    between atoms: _49  and  _50
REMARK   21  A    between atoms: _49  and  _52
REMARK   22  A    between atoms: _52  and  _53
REMARK   23  A    between atoms: _56  and  _58
REMARK   24  A    between atoms: _58  and  _59
REMARK   25  A    between atoms: _61  and  _63
REMARK   26  A    between atoms: _63  and  _64
REMARK   27  A    between atoms: _67  and  _69
REMARK   28  A    between atoms: _69  and  _70
REMARK   29  A    between atoms: _69  and  _72
REMARK   30  A    between atoms: _72  and  _73
REMARK   31  A    between atoms: _76  and  _78
REMARK   32  A    between atoms: _78  and  _79
REMARK   33  A    between atoms: _78  and  _81
REMARK   34  A    between atoms: _81  and  _82
REMARK   35  A    between atoms: _85  and  _87
REMARK   36  A    between atoms: _87  and  _88
REMARK   37  A    between atoms: _87  and  _90
REMARK   38  A    between atoms: _90  and  _91
REMARK   39  A    between atoms: _94  and  _96
REMARK   40  A    between atoms: _96  and  _97
REMARK   41  A    between atoms: _96  and  _99
REMARK   42  A    between atoms: _102  and  _104
REMARK   43  A    between atoms: _104  and  _105
REMARK   44  A    between atoms: _104  and  _107
REMARK   45  A    between atoms: _107  and  _108
REMARK   46  A    between atoms: _108  and  _109
REMARK   47  A    between atoms: _109  and  _110
REMARK   48  A    between atoms: _110  and  _111
REMARK   49  A    between atoms: _115  and  _117
REMARK   50  A    between atoms: _117  and  _118
REMARK   51  A    between atoms: _117  and  _120
REMARK   52  A    between atoms: _120  and  _121
REMARK   53  A    between atoms: _121  and  _122
REMARK   54  A    between atoms: _124  and  _126
REMARK   55  A    between atoms: _126  and  _127
REMARK   56  A    between atoms: _126  and  _129
REMARK   57  A    between atoms: _129  and  _130
REMARK   58  A    between atoms: _133  and  _135
REMARK   59  A    between atoms: _135  and  _136
REMARK   60  A    between atoms: _138  and  _140
REMARK   61  A    between atoms: _140  and  _141
REMARK   62  A    between atoms: _143  and  _145
REMARK   63  A    between atoms: _145  and  _146
REMARK   64  A    between atoms: _145  and  _148
REMARK   65  A    between atoms: _148  and  _149
REMARK   66  A    between atoms: _152  and  _154
REMARK   67  A    between atoms: _154  and  _155
REMARK   68  A    between atoms: _157  and  _159
REMARK   69  A    between atoms: _159  and  _160
REMARK   70  A    between atoms: _162  and  _164
REMARK   71  A    between atoms: _164  and  _165
REMARK   72  A    between atoms: _164  and  _167
REMARK   73  A    between atoms: _167  and  _168
REMARK   74  A    between atoms: _174  and  _176
REMARK   75  A    between atoms: _176  and  _177
REMARK   76  A    between atoms: _176  and  _179
REMARK   77  A    between atoms: _179  and  _180
REMARK   78  A    between atoms: _183  and  _185
REMARK   79  A    between atoms: _185  and  _186
REMARK   80  A    between atoms: _185  and  _188
REMARK   81  A    between atoms: _191  and  _193
REMARK   82  A    between atoms: _193  and  _194
REMARK   83  A    between atoms: _193  and  _196
REMARK   84  A    between atoms: _196  and  _197
REMARK   85  A    between atoms: _200  and  _202
REMARK   86  A    between atoms: _202  and  _203
REMARK   87  A    between atoms: _202  and  _205
REMARK   88  A    between atoms: _205  and  _206
REMARK   89  A    between atoms: _210  and  _211
REMARK   90  A    between atoms: _216  and  _218
REMARK   91  A    between atoms: _218  and  _219
REMARK   92  A    between atoms: _218  and  _221
REMARK   93  A    between atoms: _224  and  _226
REMARK   94  A    between atoms: _226  and  _227
REMARK   95  A    between atoms: _226  and  _229
REMARK   96  A    between atoms: _229  and  _230
REMARK   97  A    between atoms: _235  and  _237
REMARK   98  A    between atoms: _237  and  _238
REMARK   99  A    between atoms: _237  and  _240
REMARK  100  A    between atoms: _240  and  _241
REMARK  101  A    between atoms: _240  and  _242
REMARK  102  A    between atoms: _244  and  _246
REMARK  103  A    between atoms: _246  and  _247
REMARK  104  A    between atoms: _246  and  _249
REMARK  105  A    between atoms: _249  and  _250
REMARK  106  A    between atoms: _253  and  _255
REMARK  107  A    between atoms: _255  and  _256
REMARK  108  A    between atoms: _258  and  _260
REMARK  109  A    between atoms: _260  and  _261
REMARK  110  A    between atoms: _260  and  _263
REMARK  111  A    between atoms: _263  and  _264
REMARK  112  A    between atoms: _264  and  _265
REMARK  113  A    between atoms: _265  and  _266
REMARK  114  A    between atoms: _275  and  _277
REMARK  115  A    between atoms: _277  and  _278
REMARK  116  A    between atoms: _277  and  _280
REMARK  117  A    between atoms: _280  and  _281
REMARK  118  A    between atoms: _286  and  _288
REMARK  119  A    between atoms: _288  and  _289
REMARK  120  A    between atoms: _288  and  _291
REMARK  121  A    between atoms: _291  and  _292
REMARK  122  A    between atoms: _292  and  _293
REMARK  123  A    between atoms: _293  and  _294
REMARK  124  A    between atoms: _303  and  _305
REMARK  125  A    between atoms: _305  and  _306
REMARK  126  A    between atoms: _305  and  _308
REMARK  127  A    between atoms: _308  and  _309
REMARK  128  A    between atoms: _312  and  _314
REMARK  129  A    between atoms: _314  and  _315
REMARK  130  A    between atoms: _314  and  _317
REMARK  131  A    between atoms: _317  and  _318
REMARK  132  A    between atoms: _321  and  _323
REMARK  133  A    between atoms: _323  and  _324
REMARK  134  A    between atoms: _323  and  _326
REMARK  135  A    between atoms: _326  and  _327
REMARK  136  A    between atoms: _332  and  _334
REMARK  137  A    between atoms: _334  and  _335
REMARK  138  A    between atoms: _334  and  _337
REMARK  139  A    between atoms: _337  and  _338
REMARK  140  A    between atoms: _341  and  _343
REMARK  141  A    between atoms: _343  and  _344
REMARK  142  A    between atoms: _346  and  _348
REMARK  143  A    between atoms: _348  and  _349
REMARK  144  A    between atoms: _352  and  _354
REMARK  145  A    between atoms: _354  and  _355
REMARK  146  A    between atoms: _354  and  _357
REMARK  147  A    between atoms: _357  and  _358
REMARK  148  A    between atoms: _361  and  _363
REMARK  149  A    between atoms: _363  and  _364
REMARK  150  A    between atoms: _363  and  _366
REMARK  151  A    between atoms: _366  and  _367
REMARK  152  A    between atoms: _370  and  _372
REMARK  153  A    between atoms: _372  and  _373
REMARK  154  A    between atoms: _372  and  _375
REMARK  155  A    between atoms: _375  and  _376
REMARK  156  A    between atoms: _379  and  _381
REMARK  157  A    between atoms: _381  and  _382
REMARK  158  A    between atoms: _381  and  _384
REMARK  159  A    between atoms: _387  and  _389
REMARK  160  A    between atoms: _389  and  _390
REMARK  161  A    between atoms: _389  and  _392
REMARK  162  A    between atoms: _392  and  _393
REMARK  163  A    between atoms: _393  and  _394
REMARK  164  A    between atoms: _394  and  _395
REMARK  165  A    between atoms: _395  and  _396
REMARK  166  A    between atoms: _400  and  _402
REMARK  167  A    between atoms: _402  and  _403
REMARK  168  A    between atoms: _402  and  _405
REMARK  169  A    between atoms: _405  and  _406
REMARK  170  A    between atoms: _406  and  _407
REMARK  171  A    between atoms: _409  and  _411
REMARK  172  A    between atoms: _411  and  _412
REMARK  173  A    between atoms: _411  and  _414
REMARK  174  A    between atoms: _414  and  _415
REMARK  175  A    between atoms: _418  and  _420
REMARK  176  A    between atoms: _420  and  _421
REMARK  177  A    between atoms: _423  and  _425
REMARK  178  A    between atoms: _425  and  _426
REMARK  179  A    between atoms: _428  and  _430
REMARK  180  A    between atoms: _430  and  _431
REMARK  181  A    between atoms: _430  and  _433
REMARK  182  A    between atoms: _433  and  _434
REMARK  183  A    between atoms: _437  and  _439
REMARK  184  A    between atoms: _439  and  _440
REMARK  185  A    between atoms: _442  and  _444
REMARK  186  A    between atoms: _444  and  _445
REMARK  187  A    between atoms: _447  and  _449
REMARK  188  A    between atoms: _449  and  _450
REMARK  189  A    between atoms: _449  and  _452
REMARK  190  A    between atoms: _452  and  _453
REMARK  191  A    between atoms: _459  and  _461
REMARK  192  A    between atoms: _461  and  _462
REMARK  193  A    between atoms: _461  and  _464
REMARK  194  A    between atoms: _464  and  _465
REMARK  195  A    between atoms: _468  and  _470
REMARK  196  A    between atoms: _470  and  _471
REMARK  197  A    between atoms: _470  and  _473
REMARK  198  A    between atoms: _473  and  _474
REMARK  199  A    between atoms: _477  and  _479
REMARK  200  A    between atoms: _479  and  _480
REMARK  201  A    between atoms: _479  and  _482
REMARK  202  A    between atoms: _482  and  _483
REMARK  203  A    between atoms: _487  and  _488
REMARK  204  A    between atoms: _493  and  _495
REMARK  205  A    between atoms: _495  and  _496
REMARK  206  A    between atoms: _495  and  _498
REMARK  207  A    between atoms: _501  and  _503
REMARK  208  A    between atoms: _503  and  _504
REMARK  209  A    between atoms: _503  and  _506
REMARK  210  A    between atoms: _506  and  _507
REMARK  211  A    between atoms: _512  and  _514
REMARK  212  A    between atoms: _514  and  _515
REMARK  213  A    between atoms: _514  and  _517
REMARK  214  A    between atoms: _517  and  _518
REMARK  215  A    between atoms: _521  and  _523
REMARK  216  A    between atoms: _523  and  _524
REMARK  217  A    between atoms: _523  and  _526
REMARK  218  A    between atoms: _526  and  _527
REMARK  219  A    between atoms: _530  and  _532
REMARK  220  A    between atoms: _532  and  _533
REMARK  221  A    between atoms: _535  and  _537
REMARK  222  A    between atoms: _537  and  _538
REMARK  223  A    between atoms: _537  and  _540
REMARK  224  A    between atoms: _540  and  _541
REMARK  225  A    between atoms: _541  and  _542
REMARK  226  A    between atoms: _542  and  _543
REMARK  227  A    between atoms: _552  and  _554
REMARK  228  A    between atoms: _554  and  _555
REMARK  229  A    between atoms: _554  and  _557
REMARK  230  A    between atoms: _557  and  _558
REMARK                            x       y       z     vdW  Elec       q    Type
REMARK                         _______ _______ _______ _____ _____    ______ ____
ROOT
ATOM      1  O   HOH     1      17.817  69.505  13.838  0.00  0.00    +0.000 OA
ENDROOT
TORSDOF 0
