REMARK  Name = ../refined-set-2016/1m83/1m83_pocket.pdb
REMARK  253 active torsions:
REMARK  status: ('A' for Active; 'I' for Inactive)
REMARK    1  A    between atoms: _1  and  _3
REMARK    2  A    between atoms: _3  and  _4
REMARK    3  A    between atoms: _3  and  _6
REMARK    4  A    between atoms: _6  and  _7
REMARK    5  A    between atoms: _9  and  _11
REMARK    6  A    between atoms: _11  and  _12
REMARK    7  A    between atoms: _14  and  _16
REMARK    8  A    between atoms: _16  and  _17
REMARK    9  A    between atoms: _16  and  _19
REMARK   10  A    between atoms: _19  and  _20
REMARK   11  A    between atoms: _23  and  _25
REMARK   12  A    between atoms: _25  and  _26
REMARK   13  A    between atoms: _25  and  _28
REMARK   14  A    between atoms: _28  and  _29
REMARK   15  A    between atoms: _29  and  _30
REMARK   16  A    between atoms: _36  and  _37
REMARK   17  A    between atoms: _42  and  _44
REMARK   18  A    between atoms: _44  and  _45
REMARK   19  A    between atoms: _44  and  _47
REMARK   20  A    between atoms: _47  and  _48
REMARK   21  A    between atoms: _50  and  _52
REMARK   22  A    between atoms: _52  and  _53
REMARK   23  A    between atoms: _55  and  _57
REMARK   24  A    between atoms: _57  and  _58
REMARK   25  A    between atoms: _57  and  _60
REMARK   26  A    between atoms: _63  and  _65
REMARK   27  A    between atoms: _65  and  _66
REMARK   28  A    between atoms: _65  and  _68
REMARK   29  A    between atoms: _68  and  _69
REMARK   30  A    between atoms: _72  and  _74
REMARK   31  A    between atoms: _74  and  _75
REMARK   32  A    between atoms: _74  and  _77
REMARK   33  A    between atoms: _77  and  _78
REMARK   34  A    between atoms: _81  and  _83
REMARK   35  A    between atoms: _83  and  _84
REMARK   36  A    between atoms: _83  and  _86
REMARK   37  A    between atoms: _86  and  _87
REMARK   38  A    between atoms: _90  and  _92
REMARK   39  A    between atoms: _92  and  _93
REMARK   40  A    between atoms: _95  and  _97
REMARK   41  A    between atoms: _97  and  _98
REMARK   42  A    between atoms: _97  and  _100
REMARK   43  A    between atoms: _100  and  _101
REMARK   44  A    between atoms: _106  and  _108
REMARK   45  A    between atoms: _108  and  _109
REMARK   46  A    between atoms: _108  and  _111
REMARK   47  A    between atoms: _111  and  _112
REMARK   48  A    between atoms: _117  and  _118
REMARK   49  A    between atoms: _120  and  _122
REMARK   50  A    between atoms: _122  and  _123
REMARK   51  A    between atoms: _122  and  _125
REMARK   52  A    between atoms: _125  and  _126
REMARK   53  A    between atoms: _129  and  _131
REMARK   54  A    between atoms: _131  and  _132
REMARK   55  A    between atoms: _134  and  _136
REMARK   56  A    between atoms: _136  and  _137
REMARK   57  A    between atoms: _140  and  _142
REMARK   58  A    between atoms: _142  and  _143
REMARK   59  A    between atoms: _142  and  _145
REMARK   60  A    between atoms: _145  and  _146
REMARK   61  A    between atoms: _149  and  _151
REMARK   62  A    between atoms: _151  and  _152
REMARK   63  A    between atoms: _151  and  _154
REMARK   64  A    between atoms: _154  and  _155
REMARK   65  A    between atoms: _155  and  _156
REMARK   66  A    between atoms: _156  and  _157
REMARK   67  A    between atoms: _166  and  _168
REMARK   68  A    between atoms: _168  and  _169
REMARK   69  A    between atoms: _168  and  _171
REMARK   70  A    between atoms: _171  and  _172
REMARK   71  A    between atoms: _172  and  _173
REMARK   72  A    between atoms: _178  and  _180
REMARK   73  A    between atoms: _180  and  _181
REMARK   74  A    between atoms: _180  and  _183
REMARK   75  A    between atoms: _183  and  _184
REMARK   76  A    between atoms: _190  and  _192
REMARK   77  A    between atoms: _192  and  _193
REMARK   78  A    between atoms: _192  and  _195
REMARK   79  A    between atoms: _197  and  _199
REMARK   80  A    between atoms: _199  and  _200
REMARK   81  A    between atoms: _199  and  _202
REMARK   82  A    between atoms: _205  and  _207
REMARK   83  A    between atoms: _207  and  _208
REMARK   84  A    between atoms: _207  and  _210
REMARK   85  A    between atoms: _210  and  _211
REMARK   86  A    between atoms: _216  and  _218
REMARK   87  A    between atoms: _218  and  _219
REMARK   88  A    between atoms: _222  and  _224
REMARK   89  A    between atoms: _224  and  _225
REMARK   90  A    between atoms: _224  and  _227
REMARK   91  A    between atoms: _227  and  _228
REMARK   92  A    between atoms: _231  and  _233
REMARK   93  A    between atoms: _233  and  _234
REMARK   94  A    between atoms: _233  and  _236
REMARK   95  A    between atoms: _239  and  _241
REMARK   96  A    between atoms: _241  and  _242
REMARK   97  A    between atoms: _241  and  _244
REMARK   98  A    between atoms: _244  and  _245
REMARK   99  A    between atoms: _245  and  _246
REMARK  100  A    between atoms: _251  and  _253
REMARK  101  A    between atoms: _253  and  _254
REMARK  102  A    between atoms: _253  and  _256
REMARK  103  A    between atoms: _256  and  _257
REMARK  104  A    between atoms: _260  and  _262
REMARK  105  A    between atoms: _262  and  _263
REMARK  106  A    between atoms: _262  and  _265
REMARK  107  A    between atoms: _265  and  _266
REMARK  108  A    between atoms: _271  and  _272
REMARK  109  A    between atoms: _274  and  _276
REMARK  110  A    between atoms: _276  and  _277
REMARK  111  A    between atoms: _276  and  _279
REMARK  112  A    between atoms: _279  and  _280
REMARK  113  A    between atoms: _280  and  _281
REMARK  114  A    between atoms: _286  and  _288
REMARK  115  A    between atoms: _288  and  _289
REMARK  116  A    between atoms: _288  and  _291
REMARK  117  A    between atoms: _291  and  _292
REMARK  118  A    between atoms: _292  and  _293
REMARK  119  A    between atoms: _293  and  _294
REMARK  120  A    between atoms: _294  and  _295
REMARK  121  A    between atoms: _299  and  _301
REMARK  122  A    between atoms: _301  and  _302
REMARK  123  A    between atoms: _301  and  _304
REMARK  124  A    between atoms: _304  and  _305
REMARK  125  A    between atoms: _310  and  _311
REMARK  126  A    between atoms: _313  and  _315
REMARK  127  A    between atoms: _315  and  _316
REMARK  128  A    between atoms: _315  and  _318
REMARK  129  A    between atoms: _318  and  _319
REMARK  130  A    between atoms: _319  and  _320
REMARK  131  A    between atoms: _322  and  _324
REMARK  132  A    between atoms: _324  and  _325
REMARK  133  A    between atoms: _324  and  _327
REMARK  134  A    between atoms: _331  and  _332
REMARK  135  A    between atoms: _337  and  _339
REMARK  136  A    between atoms: _339  and  _340
REMARK  137  A    between atoms: _339  and  _342
REMARK  138  A    between atoms: _345  and  _347
REMARK  139  A    between atoms: _347  and  _348
REMARK  140  A    between atoms: _350  and  _352
REMARK  141  A    between atoms: _352  and  _353
REMARK  142  A    between atoms: _352  and  _355
REMARK  143  A    between atoms: _355  and  _356
REMARK  144  A    between atoms: _356  and  _357
REMARK  145  A    between atoms: _360  and  _362
REMARK  146  A    between atoms: _362  and  _363
REMARK  147  A    between atoms: _362  and  _365
REMARK  148  A    between atoms: _365  and  _366
REMARK  149  A    between atoms: _369  and  _371
REMARK  150  A    between atoms: _371  and  _372
REMARK  151  A    between atoms: _371  and  _374
REMARK  152  A    between atoms: _374  and  _375
REMARK  153  A    between atoms: _375  and  _376
REMARK  154  A    between atoms: _381  and  _383
REMARK  155  A    between atoms: _383  and  _384
REMARK  156  A    between atoms: _383  and  _386
REMARK  157  A    between atoms: _386  and  _387
REMARK  158  A    between atoms: _387  and  _388
REMARK  159  A    between atoms: _388  and  _389
REMARK  160  A    between atoms: _389  and  _390
REMARK  161  A    between atoms: _394  and  _396
REMARK  162  A    between atoms: _396  and  _397
REMARK  163  A    between atoms: _396  and  _399
REMARK  164  A    between atoms: _399  and  _400
REMARK  165  A    between atoms: _405  and  _407
REMARK  166  A    between atoms: _407  and  _408
REMARK  167  A    between atoms: _407  and  _410
REMARK  168  A    between atoms: _410  and  _411
REMARK  169  A    between atoms: _414  and  _416
REMARK  170  A    between atoms: _416  and  _417
REMARK  171  A    between atoms: _416  and  _419
REMARK  172  A    between atoms: _419  and  _420
REMARK  173  A    between atoms: _420  and  _421
REMARK  174  A    between atoms: _421  and  _422
REMARK  175  A    between atoms: _431  and  _433
REMARK  176  A    between atoms: _433  and  _434
REMARK  177  A    between atoms: _433  and  _436
REMARK  178  A    between atoms: _436  and  _437
REMARK  179  A    between atoms: _441  and  _442
REMARK  180  A    between atoms: _447  and  _449
REMARK  181  A    between atoms: _449  and  _450
REMARK  182  A    between atoms: _449  and  _452
REMARK  183  A    between atoms: _455  and  _457
REMARK  184  A    between atoms: _457  and  _458
REMARK  185  A    between atoms: _460  and  _462
REMARK  186  A    between atoms: _462  and  _463
REMARK  187  A    between atoms: _466  and  _468
REMARK  188  A    between atoms: _468  and  _469
REMARK  189  A    between atoms: _468  and  _471
REMARK  190  A    between atoms: _471  and  _472
REMARK  191  A    between atoms: _472  and  _473
REMARK  192  A    between atoms: _473  and  _474
REMARK  193  A    between atoms: _483  and  _485
REMARK  194  A    between atoms: _485  and  _486
REMARK  195  A    between atoms: _485  and  _488
REMARK  196  A    between atoms: _488  and  _489
REMARK  197  A    between atoms: _492  and  _494
REMARK  198  A    between atoms: _494  and  _495
REMARK  199  A    between atoms: _494  and  _497
REMARK  200  A    between atoms: _497  and  _498
REMARK  201  A    between atoms: _498  and  _499
REMARK  202  A    between atoms: _501  and  _503
REMARK  203  A    between atoms: _503  and  _504
REMARK  204  A    between atoms: _503  and  _506
REMARK  205  A    between atoms: _506  and  _507
REMARK  206  A    between atoms: _509  and  _511
REMARK  207  A    between atoms: _511  and  _512
REMARK  208  A    between atoms: _511  and  _514
REMARK  209  A    between atoms: _514  and  _515
REMARK  210  A    between atoms: _515  and  _516
REMARK  211  A    between atoms: _516  and  _517
REMARK  212  A    between atoms: _517  and  _518
REMARK  213  A    between atoms: _522  and  _524
REMARK  214  A    between atoms: _524  and  _525
REMARK  215  A    between atoms: _524  and  _527
REMARK  216  A    between atoms: _527  and  _528
REMARK  217  A    between atoms: _528  and  _529
REMARK  218  A    between atoms: _529  and  _530
REMARK  219  A    between atoms: _530  and  _531
REMARK  220  A    between atoms: _535  and  _537
REMARK  221  A    between atoms: _537  and  _538
REMARK  222  A    between atoms: _537  and  _540
REMARK  223  A    between atoms: _540  and  _541
REMARK  224  A    between atoms: _541  and  _542
REMARK  225  A    between atoms: _544  and  _546
REMARK  226  A    between atoms: _546  and  _547
REMARK  227  A    between atoms: _546  and  _549
REMARK  228  A    between atoms: _549  and  _550
REMARK  229  A    between atoms: _552  and  _554
REMARK  230  A    between atoms: _554  and  _555
REMARK  231  A    between atoms: _554  and  _557
REMARK  232  A    between atoms: _557  and  _558
REMARK  233  A    between atoms: _558  and  _559
REMARK  234  A    between atoms: _559  and  _560
REMARK  235  A    between atoms: _560  and  _561
REMARK  236  A    between atoms: _565  and  _567
REMARK  237  A    between atoms: _567  and  _568
REMARK  238  A    between atoms: _567  and  _570
REMARK  239  A    between atoms: _570  and  _571
REMARK  240  A    between atoms: _573  and  _575
REMARK  241  A    between atoms: _575  and  _576
REMARK  242  A    between atoms: _575  and  _578
REMARK  243  A    between atoms: _578  and  _579
REMARK  244  A    between atoms: _583  and  _584
REMARK  245  A    between atoms: _589  and  _591
REMARK  246  A    between atoms: _591  and  _592
REMARK  247  A    between atoms: _591  and  _594
REMARK  248  A    between atoms: _594  and  _595
REMARK  249  A    between atoms: _600  and  _601
REMARK  250  A    between atoms: _603  and  _605
REMARK  251  A    between atoms: _605  and  _606
REMARK  252  A    between atoms: _605  and  _608
REMARK  253  A    between atoms: _608  and  _609
REMARK                            x       y       z     vdW  Elec       q    Type
REMARK                         _______ _______ _______ _____ _____    ______ ____
ROOT
ATOM      1  C   GLY A  12      55.817  26.371  30.459  0.00  0.00    +0.243 C 
ATOM      2  O   GLY A  12      56.640  27.013  31.110  0.00  0.00    -0.273 OA
ATOM      3  N   ASN A  13      55.550  25.092  30.694  0.00  0.00    -0.297 N 
ATOM      4  H   ASN A  13      54.828  24.614  30.118  0.00  0.00    +0.150 HD
ENDROOT
BRANCH   1   5
ATOM      5  CA  GLY A  12      55.053  27.019  29.304  0.00  0.00    +0.176 C 
BRANCH   5   7
ATOM      6  C   ILE A  11      56.223  25.909  27.483  0.00  0.00    +0.241 C 
ATOM      7  N   GLY A  12      55.100  26.122  28.162  0.00  0.00    -0.295 N 
ATOM      8  H   GLY A  12      54.231  25.633  27.867  0.00  0.00    +0.150 HD
ATOM      9  O   ILE A  11      57.275  26.511  27.704  0.00  0.00    -0.273 OA
BRANCH   6  10
ATOM     10  CA  ILE A  11      56.151  24.851  26.394  0.00  0.00    +0.149 C 
BRANCH  10  13
ATOM     11  C   THR A  10      55.051  23.070  27.641  0.00  0.00    +0.243 C 
ATOM     12  O   THR A  10      55.975  22.999  28.455  0.00  0.00    -0.273 OA
ATOM     13  N   ILE A  11      55.039  23.940  26.630  0.00  0.00    -0.297 N 
ATOM     14  H   ILE A  11      54.216  23.969  25.995  0.00  0.00    +0.150 HD
BRANCH  11  15
ATOM     15  CA  THR A  10      53.817  22.168  27.778  0.00  0.00    +0.176 C 
BRANCH  15  17
ATOM     16  C   ILE A   9      54.172  19.928  28.688  0.00  0.00    +0.241 C 
ATOM     17  N   THR A  10      53.933  21.222  28.881  0.00  0.00    -0.295 N 
ATOM     18  H   THR A  10      53.825  21.572  29.854  0.00  0.00    +0.150 HD
ATOM     19  O   ILE A   9      54.409  19.446  27.580  0.00  0.00    -0.273 OA
BRANCH  16  20
ATOM     20  CA  ILE A   9      54.209  19.069  29.956  0.00  0.00    +0.149 C 
BRANCH  20  22
ATOM     21  C   VAL A   8      52.504  17.505  29.196  0.00  0.00    +0.241 C 
ATOM     22  N   ILE A   9      53.701  17.711  29.750  0.00  0.00    -0.297 N 
ATOM     23  H   ILE A   9      54.280  16.897  30.039  0.00  0.00    +0.150 HD
ATOM     24  O   VAL A   8      51.747  18.427  28.888  0.00  0.00    -0.273 OA
BRANCH  21  25
ATOM     25  CA  VAL A   8      52.042  16.057  29.053  0.00  0.00    +0.149 C 
BRANCH  25  28
ATOM     26  C   GLY A   7      50.547  15.721  30.931  0.00  0.00    +0.243 C 
ATOM     27  O   GLY A   7      51.479  15.635  31.713  0.00  0.00    -0.273 OA
ATOM     28  N   VAL A   8      50.714  15.905  29.636  0.00  0.00    -0.297 N 
ATOM     29  H   VAL A   8      49.880  15.943  29.016  0.00  0.00    +0.150 HD
BRANCH  26  30
ATOM     30  CA  GLY A   7      49.129  15.614  31.436  0.00  0.00    +0.176 C 
BRANCH  30  33
ATOM     31  C   SER A   6      48.362  15.742  33.743  0.00  0.00    +0.243 C 
ATOM     32  O   SER A   6      47.278  16.173  33.399  0.00  0.00    -0.273 OA
ATOM     33  N   GLY A   7      49.310  15.429  32.872  0.00  0.00    -0.295 N 
ATOM     34  H   GLY A   7      50.209  15.040  33.222  0.00  0.00    +0.150 HD
BRANCH  31  35
ATOM     35  CA  SER A   6      48.704  15.537  35.215  0.00  0.00    +0.178 C 
BRANCH  35  37
ATOM     36  C   PRO A   5      50.733  14.218  35.525  0.00  0.00    +0.241 C 
ATOM     37  N   SER A   6      50.140  15.399  35.432  0.00  0.00    -0.295 N 
ATOM     38  H   SER A   6      50.719  16.259  35.517  0.00  0.00    +0.150 HD
ATOM     39  O   PRO A   5      50.138  13.157  35.379  0.00  0.00    -0.273 OA
BRANCH  36  45
ATOM     40  C   GLN A   4      52.592  16.410  36.878  0.00  0.00    +0.244 C 
ATOM     41  N   PRO A   5      52.424  15.096  37.007  0.00  0.00    -0.272 N 
ATOM     42  CD  PRO A   5      52.637  14.277  38.218  0.00  0.00    +0.094 C 
ATOM     43  CG  PRO A   5      52.326  12.881  37.747  0.00  0.00    +0.024 C 
ATOM     44  CB  PRO A   5      52.687  12.881  36.316  0.00  0.00    +0.031 C 
ATOM     45  CA  PRO A   5      52.227  14.256  35.830  0.00  0.00    +0.152 C 
ATOM     46  O   GLN A   4      52.542  16.978  35.795  0.00  0.00    -0.273 OA
BRANCH  40  47
ATOM     47  CA  GLN A   4      52.742  17.233  38.153  0.00  0.00    +0.149 C 
BRANCH  47  50
ATOM     48  C   ILE A   3      55.110  17.836  38.159  0.00  0.00    +0.241 C 
ATOM     49  O   ILE A   3      55.445  16.699  38.465  0.00  0.00    -0.273 OA
ATOM     50  N   GLN A   4      53.839  18.198  38.013  0.00  0.00    -0.297 N 
ATOM     51  H   GLN A   4      53.617  19.190  37.794  0.00  0.00    +0.150 HD
BRANCH  48  52
ATOM     52  CA  ILE A   3      56.160  18.923  38.001  0.00  0.00    +0.149 C 
BRANCH  52  55
ATOM     53  C   GLY A   2      57.505  19.784  39.851  0.00  0.00    +0.243 C 
ATOM     54  O   GLY A   2      57.287  20.956  39.569  0.00  0.00    -0.273 OA
ATOM     55  N   ILE A   3      57.068  18.761  39.125  0.00  0.00    -0.297 N 
ATOM     56  H   ILE A   3      57.389  17.803  39.371  0.00  0.00    +0.150 HD
BRANCH  53  57
ATOM     57  CA  GLY A   2      58.333  19.409  41.062  0.00  0.00    +0.176 C 
BRANCH  57  59
ATOM     58  C   SER A   1      60.510  20.339  41.507  0.00  0.00    +0.241 C 
ATOM     59  N   GLY A   2      59.192  20.476  41.550  0.00  0.00    -0.295 N 
ATOM     60  H   GLY A   2      58.772  21.347  41.933  0.00  0.00    +0.150 HD
ATOM     61  O   SER A   1      61.059  19.318  41.093  0.00  0.00    -0.274 OA
BRANCH  58  62
ATOM     62  CA  SER A   1      61.326  21.501  42.045  0.00  0.00    +0.174 C 
BRANCH  62  63
ATOM     63  N   SER A   1      62.394  21.002  42.882  0.00  0.00    -0.236 NA
ATOM     64  H   SER A   1      62.663  19.998  42.837  0.00  0.00    +0.142 HD
ENDBRANCH  62  63
BRANCH  62  65
ATOM     65  CB  SER A   1      61.867  22.393  40.917  0.00  0.00    +0.163 C 
BRANCH  65  66
ATOM     66  OG  SER A   1      60.925  23.404  40.581  0.00  0.00    -0.380 OA
ATOM     67  H   SER A   1      61.292  23.967  39.854  0.00  0.00    +0.211 HD
ENDBRANCH  65  66
ENDBRANCH  62  65
ENDBRANCH  58  62
ENDBRANCH  57  59
ENDBRANCH  53  57
ENDBRANCH  52  55
BRANCH  52  68
ATOM     68  CB  ILE A   3      56.876  18.790  36.632  0.00  0.00    +0.027 C 
ATOM     69  CG2 ILE A   3      55.845  18.736  35.480  0.00  0.00    +0.002 C 
BRANCH  68  70
ATOM     70  CG1 ILE A   3      57.827  19.980  36.430  0.00  0.00    +0.002 C 
ATOM     71  CD1 ILE A   3      58.856  19.792  35.323  0.00  0.00    +0.000 C 
ENDBRANCH  68  70
ENDBRANCH  52  68
ENDBRANCH  48  52
ENDBRANCH  47  50
BRANCH  47  72
ATOM     72  CB  GLN A   4      51.428  17.971  38.319  0.00  0.00    +0.039 C 
BRANCH  72  73
ATOM     73  CG  GLN A   4      51.238  18.749  39.570  0.00  0.00    +0.087 C 
BRANCH  73  74
ATOM     74  CD  GLN A   4      49.812  19.235  39.661  0.00  0.00    +0.219 C 
ATOM     75  OE1 GLN A   4      48.921  18.479  40.048  0.00  0.00    -0.275 OA
ATOM     76  NE2 GLN A   4      49.555  20.377  39.052  0.00  0.00    -0.329 N 
ATOM     77 HE21 GLN A   4      48.570  20.666  38.884  0.00  0.00    +0.145 HD
ATOM     78 HE22 GLN A   4      50.337  20.988  38.740  0.00  0.00    +0.145 HD
ENDBRANCH  73  74
ENDBRANCH  72  73
ENDBRANCH  47  72
ENDBRANCH  40  47
ENDBRANCH  36  45
ENDBRANCH  35  37
BRANCH  35  79
ATOM     79  CB  SER A   6      48.196  16.724  36.025  0.00  0.00    +0.166 C 
BRANCH  79  80
ATOM     80  OG  SER A   6      48.825  17.902  35.580  0.00  0.00    -0.380 OA
ATOM     81  H   SER A   6      48.493  18.671  36.108  0.00  0.00    +0.211 HD
ENDBRANCH  79  80
ENDBRANCH  35  79
ENDBRANCH  31  35
ENDBRANCH  30  33
ENDBRANCH  26  30
ENDBRANCH  25  28
BRANCH  25  82
ATOM     82  CB  VAL A   8      52.022  15.634  27.581  0.00  0.00    +0.027 C 
ATOM     83  CG2 VAL A   8      51.495  14.201  27.477  0.00  0.00    +0.002 C 
ATOM     84  CG1 VAL A   8      53.405  15.754  26.962  0.00  0.00    +0.002 C 
ENDBRANCH  25  82
ENDBRANCH  21  25
ENDBRANCH  20  22
BRANCH  20  85
ATOM     85  CB  ILE A   9      55.647  19.111  30.520  0.00  0.00    +0.027 C 
ATOM     86  CG2 ILE A   9      55.660  18.888  32.010  0.00  0.00    +0.002 C 
BRANCH  85  87
ATOM     87  CG1 ILE A   9      56.579  18.187  29.739  0.00  0.00    +0.002 C 
ATOM     88  CD1 ILE A   9      58.039  18.387  30.060  0.00  0.00    +0.000 C 
ENDBRANCH  85  87
ENDBRANCH  20  85
ENDBRANCH  16  20
ENDBRANCH  15  17
BRANCH  15  89
ATOM     89  CB  THR A  10      52.570  23.058  27.972  0.00  0.00    +0.137 C 
ATOM     90  CG2 THR A  10      51.355  22.204  28.350  0.00  0.00    +0.034 C 
BRANCH  89  91
ATOM     91  OG1 THR A  10      52.817  24.002  29.024  0.00  0.00    -0.382 OA
ATOM     92  HG1 THR A  10      53.010  23.515  29.864  0.00  0.00    +0.210 HD
ENDBRANCH  89  91
ENDBRANCH  15  89
ENDBRANCH  11  15
ENDBRANCH  10  13
BRANCH  10  93
ATOM     93  CB  ILE A  11      56.073  25.524  25.014  0.00  0.00    +0.027 C 
ATOM     94  CG2 ILE A  11      56.464  24.553  23.919  0.00  0.00    +0.002 C 
BRANCH  93  95
ATOM     95  CG1 ILE A  11      54.697  26.166  24.801  0.00  0.00    +0.002 C 
ATOM     96  CD1 ILE A  11      54.617  27.073  23.577  0.00  0.00    +0.000 C 
ENDBRANCH  93  95
ENDBRANCH  10  93
ENDBRANCH   6  10
ENDBRANCH   5   7
ENDBRANCH   1   5
BRANCH   3  97
ATOM     97  CA  ASN A  13      56.241  24.334  31.739  0.00  0.00    +0.158 C 
BRANCH  97  98
ATOM     98  C   ASN A  13      57.726  24.366  31.422  0.00  0.00    +0.241 C 
ATOM     99  O   ASN A  13      58.565  24.597  32.293  0.00  0.00    -0.273 OA
ATOM    100  N   TYR A  14      58.030  24.124  30.151  0.00  0.00    -0.297 N 
ATOM    101  H   TYR A  14      57.263  23.902  29.485  0.00  0.00    +0.150 HD
BRANCH 100 102
ATOM    102  CA  TYR A  14      59.395  24.158  29.660  0.00  0.00    +0.153 C 
BRANCH 102 103
ATOM    103  C   TYR A  14      60.022  25.529  29.859  0.00  0.00    +0.241 C 
ATOM    104  O   TYR A  14      61.068  25.659  30.506  0.00  0.00    -0.273 OA
ATOM    105  N   ILE A  15      59.405  26.557  29.283  0.00  0.00    -0.297 N 
ATOM    106  H   ILE A  15      58.511  26.412  28.771  0.00  0.00    +0.150 HD
BRANCH 105 107
ATOM    107  CA  ILE A  15      59.992  27.889  29.375  0.00  0.00    +0.149 C 
BRANCH 107 108
ATOM    108  C   ILE A  15      60.102  28.429  30.805  0.00  0.00    +0.241 C 
ATOM    109  N   GLY A  16      59.072  28.199  31.608  0.00  0.00    -0.295 N 
ATOM    110  H   GLY A  16      58.269  27.636  31.262  0.00  0.00    +0.150 HD
ATOM    111  O   ILE A  15      61.114  29.010  31.181  0.00  0.00    -0.273 OA
BRANCH 109 112
ATOM    112  CA  GLY A  16      59.047  28.723  32.970  0.00  0.00    +0.176 C 
BRANCH 112 113
ATOM    113  C   GLY A  16      59.915  27.967  33.968  0.00  0.00    +0.243 C 
ATOM    114  O   GLY A  16      60.362  28.546  34.965  0.00  0.00    -0.273 OA
ATOM    115  N   ALA A  17      60.161  26.681  33.713  0.00  0.00    -0.297 N 
ATOM    116  H   ALA A  17      59.803  26.242  32.841  0.00  0.00    +0.150 HD
BRANCH 115 117
ATOM    117  CA  ALA A  17      60.938  25.893  34.670  0.00  0.00    +0.149 C 
ATOM    118  CB  ALA A  17      60.015  25.302  35.735  0.00  0.00    +0.031 C 
BRANCH 117 119
ATOM    119  C   ALA A  17      61.924  24.846  34.129  0.00  0.00    +0.241 C 
ATOM    120  O   ALA A  17      63.126  24.974  34.315  0.00  0.00    -0.273 OA
ATOM    121  N   LEU A  18      61.415  23.800  33.489  0.00  0.00    -0.297 N 
ATOM    122  H   LEU A  18      60.389  23.760  33.325  0.00  0.00    +0.150 HD
BRANCH 121 123
ATOM    123  CA  LEU A  18      62.254  22.700  33.006  0.00  0.00    +0.149 C 
BRANCH 123 124
ATOM    124  C   LEU A  18      63.523  23.124  32.280  0.00  0.00    +0.241 C 
ATOM    125  O   LEU A  18      64.589  22.558  32.508  0.00  0.00    -0.273 OA
ATOM    126  N   ARG A  19      63.400  24.100  31.388  0.00  0.00    -0.297 N 
ATOM    127  H   ARG A  19      62.462  24.519  31.224  0.00  0.00    +0.150 HD
BRANCH 126 128
ATOM    128  CA  ARG A  19      64.546  24.603  30.629  0.00  0.00    +0.149 C 
BRANCH 128 129
ATOM    129  C   ARG A  19      65.685  25.074  31.531  0.00  0.00    +0.241 C 
ATOM    130  N   GLN A  20      65.336  25.749  32.617  0.00  0.00    -0.297 N 
ATOM    131  H   GLN A  20      64.330  25.928  32.812  0.00  0.00    +0.150 HD
ATOM    132  O   ARG A  19      66.865  24.856  31.240  0.00  0.00    -0.273 OA
BRANCH 130 133
ATOM    133  CA  GLN A  20      66.349  26.242  33.538  0.00  0.00    +0.149 C 
BRANCH 133 134
ATOM    134  C   GLN A  20      66.960  25.137  34.426  0.00  0.00    +0.241 C 
ATOM    135  O   GLN A  20      68.111  25.247  34.833  0.00  0.00    -0.273 OA
ATOM    136  N   PHE A  21      66.223  24.046  34.663  0.00  0.00    -0.298 N 
ATOM    137  H   PHE A  21      65.259  23.993  34.277  0.00  0.00    +0.150 HD
BRANCH 136 138
ATOM    138  CA  PHE A  21      66.742  22.915  35.458  0.00  0.00    +0.141 C 
BRANCH 138 139
ATOM    139  C   PHE A  21      68.034  22.373  34.856  0.00  0.00    +0.227 C 
ATOM    140  O   PHE A  21      68.915  21.886  35.568  0.00  0.00    -0.286 OA
ENDBRANCH 138 139
BRANCH 138 141
ATOM    141  CB  PHE A  21      65.756  21.736  35.483  0.00  0.00    +0.054 C 
BRANCH 141 142
ATOM    142  CG  PHE A  21      64.464  22.014  36.186  0.00  0.00    -0.020 A 
ATOM    143  CD2 PHE A  21      64.204  23.249  36.749  0.00  0.00    -0.004 A 
ATOM    144  CE2 PHE A  21      62.999  23.492  37.397  0.00  0.00    -0.000 A 
ATOM    145  CZ  PHE A  21      62.027  22.511  37.441  0.00  0.00    -0.000 A 
ATOM    146  CE1 PHE A  21      62.265  21.281  36.872  0.00  0.00    -0.000 A 
ATOM    147  CD1 PHE A  21      63.485  21.032  36.252  0.00  0.00    -0.004 A 
ENDBRANCH 141 142
ENDBRANCH 138 141
ENDBRANCH 136 138
ENDBRANCH 133 134
BRANCH 133 148
ATOM    148  CB  GLN A  20      65.811  27.432  34.352  0.00  0.00    +0.039 C 
BRANCH 148 149
ATOM    149  CG  GLN A  20      65.637  28.743  33.523  0.00  0.00    +0.087 C 
BRANCH 149 150
ATOM    150  CD  GLN A  20      64.534  28.646  32.451  0.00  0.00    +0.219 C 
ATOM    151  OE1 GLN A  20      63.344  28.655  32.757  0.00  0.00    -0.275 OA
ATOM    152  NE2 GLN A  20      64.937  28.616  31.193  0.00  0.00    -0.329 N 
ATOM    153 HE21 GLN A  20      65.953  28.609  30.973  0.00  0.00    +0.145 HD
ATOM    154 HE22 GLN A  20      64.238  28.599  30.423  0.00  0.00    +0.145 HD
ENDBRANCH 149 150
ENDBRANCH 148 149
ENDBRANCH 133 148
ENDBRANCH 130 133
ENDBRANCH 128 129
BRANCH 128 155
ATOM    155  CB  ARG A  19      64.101  25.743  29.715  0.00  0.00    +0.033 C 
BRANCH 155 156
ATOM    156  CG  ARG A  19      65.146  26.166  28.680  0.00  0.00    +0.045 C 
BRANCH 156 157
ATOM    157  CD  ARG A  19      64.563  27.204  27.734  0.00  0.00    +0.174 C 
BRANCH 157 158
ATOM    158  NE  ARG A  19      64.164  28.419  28.438  0.00  0.00    -0.265 N 
ATOM    159  HE  ARG A  19      64.105  28.386  29.476  0.00  0.00    +0.259 HD
ATOM    160  CZ  ARG A  19      63.873  29.561  27.833  0.00  0.00    +0.342 C 
ATOM    161  NH2 ARG A  19      63.562  30.636  28.544  0.00  0.00    -0.292 N 
ATOM    162 HH21 ARG A  19      63.546  30.586  29.583  0.00  0.00    +0.255 HD
ATOM    163 HH22 ARG A  19      63.335  31.530  28.063  0.00  0.00    +0.255 HD
ATOM    164  NH1 ARG A  19      63.917  29.630  26.511  0.00  0.00    -0.292 N 
ATOM    165 HH11 ARG A  19      63.690  30.523  26.029  0.00  0.00    +0.255 HD
ATOM    166 HH12 ARG A  19      64.179  28.791  25.955  0.00  0.00    +0.255 HD
ENDBRANCH 157 158
ENDBRANCH 156 157
ENDBRANCH 155 156
ENDBRANCH 128 155
ENDBRANCH 126 128
ENDBRANCH 123 124
BRANCH 123 167
ATOM    167  CB  LEU A  18      61.442  21.715  32.165  0.00  0.00    +0.029 C 
BRANCH 167 168
ATOM    168  CG  LEU A  18      61.758  20.204  32.176  0.00  0.00    +0.002 C 
ATOM    169  CD2 LEU A  18      63.000  19.793  32.968  0.00  0.00    +0.000 C 
ATOM    170  CD1 LEU A  18      61.745  19.579  30.778  0.00  0.00    +0.000 C 
ENDBRANCH 167 168
ENDBRANCH 123 167
ENDBRANCH 121 123
ENDBRANCH 117 119
ENDBRANCH 115 117
ENDBRANCH 112 113
ENDBRANCH 109 112
ENDBRANCH 107 108
BRANCH 107 171
ATOM    171  CB  ILE A  15      59.287  28.913  28.466  0.00  0.00    +0.027 C 
ATOM    172  CG2 ILE A  15      59.747  30.328  28.826  0.00  0.00    +0.002 C 
BRANCH 171 173
ATOM    173  CG1 ILE A  15      59.592  28.629  26.988  0.00  0.00    +0.002 C 
ATOM    174  CD1 ILE A  15      58.422  28.947  26.041  0.00  0.00    +0.000 C 
ENDBRANCH 171 173
ENDBRANCH 107 171
ENDBRANCH 105 107
ENDBRANCH 102 103
BRANCH 102 175
ATOM    175  CB  TYR A  14      59.440  23.794  28.180  0.00  0.00    +0.055 C 
BRANCH 175 176
ATOM    176  CG  TYR A  14      60.841  23.676  27.624  0.00  0.00    -0.020 A 
ATOM    177  CD2 TYR A  14      61.718  22.708  28.102  0.00  0.00    -0.001 A 
ATOM    178  CE2 TYR A  14      63.007  22.585  27.590  0.00  0.00    +0.036 A 
ATOM    179  CZ  TYR A  14      63.438  23.450  26.609  0.00  0.00    +0.134 A 
ATOM    180  CE1 TYR A  14      62.598  24.442  26.131  0.00  0.00    +0.036 A 
ATOM    181  CD1 TYR A  14      61.303  24.550  26.641  0.00  0.00    -0.001 A 
BRANCH 179 182
ATOM    182  OH  TYR A  14      64.716  23.321  26.113  0.00  0.00    -0.506 OA
ATOM    183  HH  TYR A  14      65.170  22.566  26.565  0.00  0.00    +0.292 HD
ENDBRANCH 179 182
ENDBRANCH 175 176
ENDBRANCH 102 175
ENDBRANCH 100 102
ENDBRANCH  97  98
BRANCH  97 184
ATOM    184  CB  ASN A  13      55.790  22.873  31.740  0.00  0.00    +0.114 C 
BRANCH 184 185
ATOM    185  CG  ASN A  13      54.381  22.696  32.225  0.00  0.00    +0.222 C 
ATOM    186  ND2 ASN A  13      54.091  23.213  33.406  0.00  0.00    -0.329 N 
ATOM    187 HD21 ASN A  13      54.810  23.754  33.927  0.00  0.00    +0.145 HD
ATOM    188 HD22 ASN A  13      53.144  23.079  33.814  0.00  0.00    +0.145 HD
ATOM    189  OD1 ASN A  13      53.570  22.048  31.566  0.00  0.00    -0.275 OA
ENDBRANCH 184 185
ENDBRANCH  97 184
ENDBRANCH   3  97
TORSDOF 75
REMARK  Name = ../refined-set-2016/1m83/1m83_pocket.pdb
REMARK  253 active torsions:
REMARK  status: ('A' for Active; 'I' for Inactive)
REMARK    1  A    between atoms: _1  and  _3
REMARK    2  A    between atoms: _3  and  _4
REMARK    3  A    between atoms: _3  and  _6
REMARK    4  A    between atoms: _6  and  _7
REMARK    5  A    between atoms: _9  and  _11
REMARK    6  A    between atoms: _11  and  _12
REMARK    7  A    between atoms: _14  and  _16
REMARK    8  A    between atoms: _16  and  _17
REMARK    9  A    between atoms: _16  and  _19
REMARK   10  A    between atoms: _19  and  _20
REMARK   11  A    between atoms: _23  and  _25
REMARK   12  A    between atoms: _25  and  _26
REMARK   13  A    between atoms: _25  and  _28
REMARK   14  A    between atoms: _28  and  _29
REMARK   15  A    between atoms: _29  and  _30
REMARK   16  A    between atoms: _36  and  _37
REMARK   17  A    between atoms: _42  and  _44
REMARK   18  A    between atoms: _44  and  _45
REMARK   19  A    between atoms: _44  and  _47
REMARK   20  A    between atoms: _47  and  _48
REMARK   21  A    between atoms: _50  and  _52
REMARK   22  A    between atoms: _52  and  _53
REMARK   23  A    between atoms: _55  and  _57
REMARK   24  A    between atoms: _57  and  _58
REMARK   25  A    between atoms: _57  and  _60
REMARK   26  A    between atoms: _63  and  _65
REMARK   27  A    between atoms: _65  and  _66
REMARK   28  A    between atoms: _65  and  _68
REMARK   29  A    between atoms: _68  and  _69
REMARK   30  A    between atoms: _72  and  _74
REMARK   31  A    between atoms: _74  and  _75
REMARK   32  A    between atoms: _74  and  _77
REMARK   33  A    between atoms: _77  and  _78
REMARK   34  A    between atoms: _81  and  _83
REMARK   35  A    between atoms: _83  and  _84
REMARK   36  A    between atoms: _83  and  _86
REMARK   37  A    between atoms: _86  and  _87
REMARK   38  A    between atoms: _90  and  _92
REMARK   39  A    between atoms: _92  and  _93
REMARK   40  A    between atoms: _95  and  _97
REMARK   41  A    between atoms: _97  and  _98
REMARK   42  A    between atoms: _97  and  _100
REMARK   43  A    between atoms: _100  and  _101
REMARK   44  A    between atoms: _106  and  _108
REMARK   45  A    between atoms: _108  and  _109
REMARK   46  A    between atoms: _108  and  _111
REMARK   47  A    between atoms: _111  and  _112
REMARK   48  A    between atoms: _117  and  _118
REMARK   49  A    between atoms: _120  and  _122
REMARK   50  A    between atoms: _122  and  _123
REMARK   51  A    between atoms: _122  and  _125
REMARK   52  A    between atoms: _125  and  _126
REMARK   53  A    between atoms: _129  and  _131
REMARK   54  A    between atoms: _131  and  _132
REMARK   55  A    between atoms: _134  and  _136
REMARK   56  A    between atoms: _136  and  _137
REMARK   57  A    between atoms: _140  and  _142
REMARK   58  A    between atoms: _142  and  _143
REMARK   59  A    between atoms: _142  and  _145
REMARK   60  A    between atoms: _145  and  _146
REMARK   61  A    between atoms: _149  and  _151
REMARK   62  A    between atoms: _151  and  _152
REMARK   63  A    between atoms: _151  and  _154
REMARK   64  A    between atoms: _154  and  _155
REMARK   65  A    between atoms: _155  and  _156
REMARK   66  A    between atoms: _156  and  _157
REMARK   67  A    between atoms: _166  and  _168
REMARK   68  A    between atoms: _168  and  _169
REMARK   69  A    between atoms: _168  and  _171
REMARK   70  A    between atoms: _171  and  _172
REMARK   71  A    between atoms: _172  and  _173
REMARK   72  A    between atoms: _178  and  _180
REMARK   73  A    between atoms: _180  and  _181
REMARK   74  A    between atoms: _180  and  _183
REMARK   75  A    between atoms: _183  and  _184
REMARK   76  A    between atoms: _190  and  _192
REMARK   77  A    between atoms: _192  and  _193
REMARK   78  A    between atoms: _192  and  _195
REMARK   79  A    between atoms: _197  and  _199
REMARK   80  A    between atoms: _199  and  _200
REMARK   81  A    between atoms: _199  and  _202
REMARK   82  A    between atoms: _205  and  _207
REMARK   83  A    between atoms: _207  and  _208
REMARK   84  A    between atoms: _207  and  _210
REMARK   85  A    between atoms: _210  and  _211
REMARK   86  A    between atoms: _216  and  _218
REMARK   87  A    between atoms: _218  and  _219
REMARK   88  A    between atoms: _222  and  _224
REMARK   89  A    between atoms: _224  and  _225
REMARK   90  A    between atoms: _224  and  _227
REMARK   91  A    between atoms: _227  and  _228
REMARK   92  A    between atoms: _231  and  _233
REMARK   93  A    between atoms: _233  and  _234
REMARK   94  A    between atoms: _233  and  _236
REMARK   95  A    between atoms: _239  and  _241
REMARK   96  A    between atoms: _241  and  _242
REMARK   97  A    between atoms: _241  and  _244
REMARK   98  A    between atoms: _244  and  _245
REMARK   99  A    between atoms: _245  and  _246
REMARK  100  A    between atoms: _251  and  _253
REMARK  101  A    between atoms: _253  and  _254
REMARK  102  A    between atoms: _253  and  _256
REMARK  103  A    between atoms: _256  and  _257
REMARK  104  A    between atoms: _260  and  _262
REMARK  105  A    between atoms: _262  and  _263
REMARK  106  A    between atoms: _262  and  _265
REMARK  107  A    between atoms: _265  and  _266
REMARK  108  A    between atoms: _271  and  _272
REMARK  109  A    between atoms: _274  and  _276
REMARK  110  A    between atoms: _276  and  _277
REMARK  111  A    between atoms: _276  and  _279
REMARK  112  A    between atoms: _279  and  _280
REMARK  113  A    between atoms: _280  and  _281
REMARK  114  A    between atoms: _286  and  _288
REMARK  115  A    between atoms: _288  and  _289
REMARK  116  A    between atoms: _288  and  _291
REMARK  117  A    between atoms: _291  and  _292
REMARK  118  A    between atoms: _292  and  _293
REMARK  119  A    between atoms: _293  and  _294
REMARK  120  A    between atoms: _294  and  _295
REMARK  121  A    between atoms: _299  and  _301
REMARK  122  A    between atoms: _301  and  _302
REMARK  123  A    between atoms: _301  and  _304
REMARK  124  A    between atoms: _304  and  _305
REMARK  125  A    between atoms: _310  and  _311
REMARK  126  A    between atoms: _313  and  _315
REMARK  127  A    between atoms: _315  and  _316
REMARK  128  A    between atoms: _315  and  _318
REMARK  129  A    between atoms: _318  and  _319
REMARK  130  A    between atoms: _319  and  _320
REMARK  131  A    between atoms: _322  and  _324
REMARK  132  A    between atoms: _324  and  _325
REMARK  133  A    between atoms: _324  and  _327
REMARK  134  A    between atoms: _331  and  _332
REMARK  135  A    between atoms: _337  and  _339
REMARK  136  A    between atoms: _339  and  _340
REMARK  137  A    between atoms: _339  and  _342
REMARK  138  A    between atoms: _345  and  _347
REMARK  139  A    between atoms: _347  and  _348
REMARK  140  A    between atoms: _350  and  _352
REMARK  141  A    between atoms: _352  and  _353
REMARK  142  A    between atoms: _352  and  _355
REMARK  143  A    between atoms: _355  and  _356
REMARK  144  A    between atoms: _356  and  _357
REMARK  145  A    between atoms: _360  and  _362
REMARK  146  A    between atoms: _362  and  _363
REMARK  147  A    between atoms: _362  and  _365
REMARK  148  A    between atoms: _365  and  _366
REMARK  149  A    between atoms: _369  and  _371
REMARK  150  A    between atoms: _371  and  _372
REMARK  151  A    between atoms: _371  and  _374
REMARK  152  A    between atoms: _374  and  _375
REMARK  153  A    between atoms: _375  and  _376
REMARK  154  A    between atoms: _381  and  _383
REMARK  155  A    between atoms: _383  and  _384
REMARK  156  A    between atoms: _383  and  _386
REMARK  157  A    between atoms: _386  and  _387
REMARK  158  A    between atoms: _387  and  _388
REMARK  159  A    between atoms: _388  and  _389
REMARK  160  A    between atoms: _389  and  _390
REMARK  161  A    between atoms: _394  and  _396
REMARK  162  A    between atoms: _396  and  _397
REMARK  163  A    between atoms: _396  and  _399
REMARK  164  A    between atoms: _399  and  _400
REMARK  165  A    between atoms: _405  and  _407
REMARK  166  A    between atoms: _407  and  _408
REMARK  167  A    between atoms: _407  and  _410
REMARK  168  A    between atoms: _410  and  _411
REMARK  169  A    between atoms: _414  and  _416
REMARK  170  A    between atoms: _416  and  _417
REMARK  171  A    between atoms: _416  and  _419
REMARK  172  A    between atoms: _419  and  _420
REMARK  173  A    between atoms: _420  and  _421
REMARK  174  A    between atoms: _421  and  _422
REMARK  175  A    between atoms: _431  and  _433
REMARK  176  A    between atoms: _433  and  _434
REMARK  177  A    between atoms: _433  and  _436
REMARK  178  A    between atoms: _436  and  _437
REMARK  179  A    between atoms: _441  and  _442
REMARK  180  A    between atoms: _447  and  _449
REMARK  181  A    between atoms: _449  and  _450
REMARK  182  A    between atoms: _449  and  _452
REMARK  183  A    between atoms: _455  and  _457
REMARK  184  A    between atoms: _457  and  _458
REMARK  185  A    between atoms: _460  and  _462
REMARK  186  A    between atoms: _462  and  _463
REMARK  187  A    between atoms: _466  and  _468
REMARK  188  A    between atoms: _468  and  _469
REMARK  189  A    between atoms: _468  and  _471
REMARK  190  A    between atoms: _471  and  _472
REMARK  191  A    between atoms: _472  and  _473
REMARK  192  A    between atoms: _473  and  _474
REMARK  193  A    between atoms: _483  and  _485
REMARK  194  A    between atoms: _485  and  _486
REMARK  195  A    between atoms: _485  and  _488
REMARK  196  A    between atoms: _488  and  _489
REMARK  197  A    between atoms: _492  and  _494
REMARK  198  A    between atoms: _494  and  _495
REMARK  199  A    between atoms: _494  and  _497
REMARK  200  A    between atoms: _497  and  _498
REMARK  201  A    between atoms: _498  and  _499
REMARK  202  A    between atoms: _501  and  _503
REMARK  203  A    between atoms: _503  and  _504
REMARK  204  A    between atoms: _503  and  _506
REMARK  205  A    between atoms: _506  and  _507
REMARK  206  A    between atoms: _509  and  _511
REMARK  207  A    between atoms: _511  and  _512
REMARK  208  A    between atoms: _511  and  _514
REMARK  209  A    between atoms: _514  and  _515
REMARK  210  A    between atoms: _515  and  _516
REMARK  211  A    between atoms: _516  and  _517
REMARK  212  A    between atoms: _517  and  _518
REMARK  213  A    between atoms: _522  and  _524
REMARK  214  A    between atoms: _524  and  _525
REMARK  215  A    between atoms: _524  and  _527
REMARK  216  A    between atoms: _527  and  _528
REMARK  217  A    between atoms: _528  and  _529
REMARK  218  A    between atoms: _529  and  _530
REMARK  219  A    between atoms: _530  and  _531
REMARK  220  A    between atoms: _535  and  _537
REMARK  221  A    between atoms: _537  and  _538
REMARK  222  A    between atoms: _537  and  _540
REMARK  223  A    between atoms: _540  and  _541
REMARK  224  A    between atoms: _541  and  _542
REMARK  225  A    between atoms: _544  and  _546
REMARK  226  A    between atoms: _546  and  _547
REMARK  227  A    between atoms: _546  and  _549
REMARK  228  A    between atoms: _549  and  _550
REMARK  229  A    between atoms: _552  and  _554
REMARK  230  A    between atoms: _554  and  _555
REMARK  231  A    between atoms: _554  and  _557
REMARK  232  A    between atoms: _557  and  _558
REMARK  233  A    between atoms: _558  and  _559
REMARK  234  A    between atoms: _559  and  _560
REMARK  235  A    between atoms: _560  and  _561
REMARK  236  A    between atoms: _565  and  _567
REMARK  237  A    between atoms: _567  and  _568
REMARK  238  A    between atoms: _567  and  _570
REMARK  239  A    between atoms: _570  and  _571
REMARK  240  A    between atoms: _573  and  _575
REMARK  241  A    between atoms: _575  and  _576
REMARK  242  A    between atoms: _575  and  _578
REMARK  243  A    between atoms: _578  and  _579
REMARK  244  A    between atoms: _583  and  _584
REMARK  245  A    between atoms: _589  and  _591
REMARK  246  A    between atoms: _591  and  _592
REMARK  247  A    between atoms: _591  and  _594
REMARK  248  A    between atoms: _594  and  _595
REMARK  249  A    between atoms: _600  and  _601
REMARK  250  A    between atoms: _603  and  _605
REMARK  251  A    between atoms: _605  and  _606
REMARK  252  A    between atoms: _605  and  _608
REMARK  253  A    between atoms: _608  and  _609
REMARK                            x       y       z     vdW  Elec       q    Type
REMARK                         _______ _______ _______ _____ _____    ______ ____
ROOT
ATOM      1  CA  CYS A   1      60.399  15.561  41.301  0.00  0.00    +0.145 C 
ENDROOT
BRANCH   1   2
ATOM      2  N   CYS A   1      61.425  16.518  40.953  0.00  0.00    -0.238 NA
ATOM      3  H   CYS A   1      61.203  17.534  40.949  0.00  0.00    +0.142 HD
ENDBRANCH   1   2
BRANCH   1   4
ATOM      4  CB  CYS A   1      59.889  15.866  42.716  0.00  0.00    +0.094 C 
ATOM      5  SG  CYS A   1      58.920  14.538  43.492  0.00  0.00    -0.080 S 
ENDBRANCH   1   4
BRANCH   1   6
ATOM      6  C   CYS A   1      59.232  15.450  40.337  0.00  0.00    +0.225 C 
ATOM      7  O   CYS A   1      58.778  16.438  39.755  0.00  0.00    -0.287 OA
ENDBRANCH   1   6
TORSDOF 3
REMARK  Name = ../refined-set-2016/1m83/1m83_pocket.pdb
REMARK  253 active torsions:
REMARK  status: ('A' for Active; 'I' for Inactive)
REMARK    1  A    between atoms: _1  and  _3
REMARK    2  A    between atoms: _3  and  _4
REMARK    3  A    between atoms: _3  and  _6
REMARK    4  A    between atoms: _6  and  _7
REMARK    5  A    between atoms: _9  and  _11
REMARK    6  A    between atoms: _11  and  _12
REMARK    7  A    between atoms: _14  and  _16
REMARK    8  A    between atoms: _16  and  _17
REMARK    9  A    between atoms: _16  and  _19
REMARK   10  A    between atoms: _19  and  _20
REMARK   11  A    between atoms: _23  and  _25
REMARK   12  A    between atoms: _25  and  _26
REMARK   13  A    between atoms: _25  and  _28
REMARK   14  A    between atoms: _28  and  _29
REMARK   15  A    between atoms: _29  and  _30
REMARK   16  A    between atoms: _36  and  _37
REMARK   17  A    between atoms: _42  and  _44
REMARK   18  A    between atoms: _44  and  _45
REMARK   19  A    between atoms: _44  and  _47
REMARK   20  A    between atoms: _47  and  _48
REMARK   21  A    between atoms: _50  and  _52
REMARK   22  A    between atoms: _52  and  _53
REMARK   23  A    between atoms: _55  and  _57
REMARK   24  A    between atoms: _57  and  _58
REMARK   25  A    between atoms: _57  and  _60
REMARK   26  A    between atoms: _63  and  _65
REMARK   27  A    between atoms: _65  and  _66
REMARK   28  A    between atoms: _65  and  _68
REMARK   29  A    between atoms: _68  and  _69
REMARK   30  A    between atoms: _72  and  _74
REMARK   31  A    between atoms: _74  and  _75
REMARK   32  A    between atoms: _74  and  _77
REMARK   33  A    between atoms: _77  and  _78
REMARK   34  A    between atoms: _81  and  _83
REMARK   35  A    between atoms: _83  and  _84
REMARK   36  A    between atoms: _83  and  _86
REMARK   37  A    between atoms: _86  and  _87
REMARK   38  A    between atoms: _90  and  _92
REMARK   39  A    between atoms: _92  and  _93
REMARK   40  A    between atoms: _95  and  _97
REMARK   41  A    between atoms: _97  and  _98
REMARK   42  A    between atoms: _97  and  _100
REMARK   43  A    between atoms: _100  and  _101
REMARK   44  A    between atoms: _106  and  _108
REMARK   45  A    between atoms: _108  and  _109
REMARK   46  A    between atoms: _108  and  _111
REMARK   47  A    between atoms: _111  and  _112
REMARK   48  A    between atoms: _117  and  _118
REMARK   49  A    between atoms: _120  and  _122
REMARK   50  A    between atoms: _122  and  _123
REMARK   51  A    between atoms: _122  and  _125
REMARK   52  A    between atoms: _125  and  _126
REMARK   53  A    between atoms: _129  and  _131
REMARK   54  A    between atoms: _131  and  _132
REMARK   55  A    between atoms: _134  and  _136
REMARK   56  A    between atoms: _136  and  _137
REMARK   57  A    between atoms: _140  and  _142
REMARK   58  A    between atoms: _142  and  _143
REMARK   59  A    between atoms: _142  and  _145
REMARK   60  A    between atoms: _145  and  _146
REMARK   61  A    between atoms: _149  and  _151
REMARK   62  A    between atoms: _151  and  _152
REMARK   63  A    between atoms: _151  and  _154
REMARK   64  A    between atoms: _154  and  _155
REMARK   65  A    between atoms: _155  and  _156
REMARK   66  A    between atoms: _156  and  _157
REMARK   67  A    between atoms: _166  and  _168
REMARK   68  A    between atoms: _168  and  _169
REMARK   69  A    between atoms: _168  and  _171
REMARK   70  A    between atoms: _171  and  _172
REMARK   71  A    between atoms: _172  and  _173
REMARK   72  A    between atoms: _178  and  _180
REMARK   73  A    between atoms: _180  and  _181
REMARK   74  A    between atoms: _180  and  _183
REMARK   75  A    between atoms: _183  and  _184
REMARK   76  A    between atoms: _190  and  _192
REMARK   77  A    between atoms: _192  and  _193
REMARK   78  A    between atoms: _192  and  _195
REMARK   79  A    between atoms: _197  and  _199
REMARK   80  A    between atoms: _199  and  _200
REMARK   81  A    between atoms: _199  and  _202
REMARK   82  A    between atoms: _205  and  _207
REMARK   83  A    between atoms: _207  and  _208
REMARK   84  A    between atoms: _207  and  _210
REMARK   85  A    between atoms: _210  and  _211
REMARK   86  A    between atoms: _216  and  _218
REMARK   87  A    between atoms: _218  and  _219
REMARK   88  A    between atoms: _222  and  _224
REMARK   89  A    between atoms: _224  and  _225
REMARK   90  A    between atoms: _224  and  _227
REMARK   91  A    between atoms: _227  and  _228
REMARK   92  A    between atoms: _231  and  _233
REMARK   93  A    between atoms: _233  and  _234
REMARK   94  A    between atoms: _233  and  _236
REMARK   95  A    between atoms: _239  and  _241
REMARK   96  A    between atoms: _241  and  _242
REMARK   97  A    between atoms: _241  and  _244
REMARK   98  A    between atoms: _244  and  _245
REMARK   99  A    between atoms: _245  and  _246
REMARK  100  A    between atoms: _251  and  _253
REMARK  101  A    between atoms: _253  and  _254
REMARK  102  A    between atoms: _253  and  _256
REMARK  103  A    between atoms: _256  and  _257
REMARK  104  A    between atoms: _260  and  _262
REMARK  105  A    between atoms: _262  and  _263
REMARK  106  A    between atoms: _262  and  _265
REMARK  107  A    between atoms: _265  and  _266
REMARK  108  A    between atoms: _271  and  _272
REMARK  109  A    between atoms: _274  and  _276
REMARK  110  A    between atoms: _276  and  _277
REMARK  111  A    between atoms: _276  and  _279
REMARK  112  A    between atoms: _279  and  _280
REMARK  113  A    between atoms: _280  and  _281
REMARK  114  A    between atoms: _286  and  _288
REMARK  115  A    between atoms: _288  and  _289
REMARK  116  A    between atoms: _288  and  _291
REMARK  117  A    between atoms: _291  and  _292
REMARK  118  A    between atoms: _292  and  _293
REMARK  119  A    between atoms: _293  and  _294
REMARK  120  A    between atoms: _294  and  _295
REMARK  121  A    between atoms: _299  and  _301
REMARK  122  A    between atoms: _301  and  _302
REMARK  123  A    between atoms: _301  and  _304
REMARK  124  A    between atoms: _304  and  _305
REMARK  125  A    between atoms: _310  and  _311
REMARK  126  A    between atoms: _313  and  _315
REMARK  127  A    between atoms: _315  and  _316
REMARK  128  A    between atoms: _315  and  _318
REMARK  129  A    between atoms: _318  and  _319
REMARK  130  A    between atoms: _319  and  _320
REMARK  131  A    between atoms: _322  and  _324
REMARK  132  A    between atoms: _324  and  _325
REMARK  133  A    between atoms: _324  and  _327
REMARK  134  A    between atoms: _331  and  _332
REMARK  135  A    between atoms: _337  and  _339
REMARK  136  A    between atoms: _339  and  _340
REMARK  137  A    between atoms: _339  and  _342
REMARK  138  A    between atoms: _345  and  _347
REMARK  139  A    between atoms: _347  and  _348
REMARK  140  A    between atoms: _350  and  _352
REMARK  141  A    between atoms: _352  and  _353
REMARK  142  A    between atoms: _352  and  _355
REMARK  143  A    between atoms: _355  and  _356
REMARK  144  A    between atoms: _356  and  _357
REMARK  145  A    between atoms: _360  and  _362
REMARK  146  A    between atoms: _362  and  _363
REMARK  147  A    between atoms: _362  and  _365
REMARK  148  A    between atoms: _365  and  _366
REMARK  149  A    between atoms: _369  and  _371
REMARK  150  A    between atoms: _371  and  _372
REMARK  151  A    between atoms: _371  and  _374
REMARK  152  A    between atoms: _374  and  _375
REMARK  153  A    between atoms: _375  and  _376
REMARK  154  A    between atoms: _381  and  _383
REMARK  155  A    between atoms: _383  and  _384
REMARK  156  A    between atoms: _383  and  _386
REMARK  157  A    between atoms: _386  and  _387
REMARK  158  A    between atoms: _387  and  _388
REMARK  159  A    between atoms: _388  and  _389
REMARK  160  A    between atoms: _389  and  _390
REMARK  161  A    between atoms: _394  and  _396
REMARK  162  A    between atoms: _396  and  _397
REMARK  163  A    between atoms: _396  and  _399
REMARK  164  A    between atoms: _399  and  _400
REMARK  165  A    between atoms: _405  and  _407
REMARK  166  A    between atoms: _407  and  _408
REMARK  167  A    between atoms: _407  and  _410
REMARK  168  A    between atoms: _410  and  _411
REMARK  169  A    between atoms: _414  and  _416
REMARK  170  A    between atoms: _416  and  _417
REMARK  171  A    between atoms: _416  and  _419
REMARK  172  A    between atoms: _419  and  _420
REMARK  173  A    between atoms: _420  and  _421
REMARK  174  A    between atoms: _421  and  _422
REMARK  175  A    between atoms: _431  and  _433
REMARK  176  A    between atoms: _433  and  _434
REMARK  177  A    between atoms: _433  and  _436
REMARK  178  A    between atoms: _436  and  _437
REMARK  179  A    between atoms: _441  and  _442
REMARK  180  A    between atoms: _447  and  _449
REMARK  181  A    between atoms: _449  and  _450
REMARK  182  A    between atoms: _449  and  _452
REMARK  183  A    between atoms: _455  and  _457
REMARK  184  A    between atoms: _457  and  _458
REMARK  185  A    between atoms: _460  and  _462
REMARK  186  A    between atoms: _462  and  _463
REMARK  187  A    between atoms: _466  and  _468
REMARK  188  A    between atoms: _468  and  _469
REMARK  189  A    between atoms: _468  and  _471
REMARK  190  A    between atoms: _471  and  _472
REMARK  191  A    between atoms: _472  and  _473
REMARK  192  A    between atoms: _473  and  _474
REMARK  193  A    between atoms: _483  and  _485
REMARK  194  A    between atoms: _485  and  _486
REMARK  195  A    between atoms: _485  and  _488
REMARK  196  A    between atoms: _488  and  _489
REMARK  197  A    between atoms: _492  and  _494
REMARK  198  A    between atoms: _494  and  _495
REMARK  199  A    between atoms: _494  and  _497
REMARK  200  A    between atoms: _497  and  _498
REMARK  201  A    between atoms: _498  and  _499
REMARK  202  A    between atoms: _501  and  _503
REMARK  203  A    between atoms: _503  and  _504
REMARK  204  A    between atoms: _503  and  _506
REMARK  205  A    between atoms: _506  and  _507
REMARK  206  A    between atoms: _509  and  _511
REMARK  207  A    between atoms: _511  and  _512
REMARK  208  A    between atoms: _511  and  _514
REMARK  209  A    between atoms: _514  and  _515
REMARK  210  A    between atoms: _515  and  _516
REMARK  211  A    between atoms: _516  and  _517
REMARK  212  A    between atoms: _517  and  _518
REMARK  213  A    between atoms: _522  and  _524
REMARK  214  A    between atoms: _524  and  _525
REMARK  215  A    between atoms: _524  and  _527
REMARK  216  A    between atoms: _527  and  _528
REMARK  217  A    between atoms: _528  and  _529
REMARK  218  A    between atoms: _529  and  _530
REMARK  219  A    between atoms: _530  and  _531
REMARK  220  A    between atoms: _535  and  _537
REMARK  221  A    between atoms: _537  and  _538
REMARK  222  A    between atoms: _537  and  _540
REMARK  223  A    between atoms: _540  and  _541
REMARK  224  A    between atoms: _541  and  _542
REMARK  225  A    between atoms: _544  and  _546
REMARK  226  A    between atoms: _546  and  _547
REMARK  227  A    between atoms: _546  and  _549
REMARK  228  A    between atoms: _549  and  _550
REMARK  229  A    between atoms: _552  and  _554
REMARK  230  A    between atoms: _554  and  _555
REMARK  231  A    between atoms: _554  and  _557
REMARK  232  A    between atoms: _557  and  _558
REMARK  233  A    between atoms: _558  and  _559
REMARK  234  A    between atoms: _559  and  _560
REMARK  235  A    between atoms: _560  and  _561
REMARK  236  A    between atoms: _565  and  _567
REMARK  237  A    between atoms: _567  and  _568
REMARK  238  A    between atoms: _567  and  _570
REMARK  239  A    between atoms: _570  and  _571
REMARK  240  A    between atoms: _573  and  _575
REMARK  241  A    between atoms: _575  and  _576
REMARK  242  A    between atoms: _575  and  _578
REMARK  243  A    between atoms: _578  and  _579
REMARK  244  A    between atoms: _583  and  _584
REMARK  245  A    between atoms: _589  and  _591
REMARK  246  A    between atoms: _591  and  _592
REMARK  247  A    between atoms: _591  and  _594
REMARK  248  A    between atoms: _594  and  _595
REMARK  249  A    between atoms: _600  and  _601
REMARK  250  A    between atoms: _603  and  _605
REMARK  251  A    between atoms: _605  and  _606
REMARK  252  A    between atoms: _605  and  _608
REMARK  253  A    between atoms: _608  and  _609
REMARK                            x       y       z     vdW  Elec       q    Type
REMARK                         _______ _______ _______ _____ _____    ______ ____
ROOT
ATOM      1  CA  VAL A   1      54.749  14.944  41.848  0.00  0.00    +0.133 C 
ENDROOT
BRANCH   1   2
ATOM      2  CB  VAL A   1      54.665  16.381  42.477  0.00  0.00    +0.023 C 
ATOM      3  CG2 VAL A   1      55.965  16.716  43.215  0.00  0.00    +0.002 C 
ATOM      4  CG1 VAL A   1      54.416  17.450  41.398  0.00  0.00    +0.002 C 
ENDBRANCH   1   2
BRANCH   1   5
ATOM      5  N   VAL A   1      55.687  14.887  40.735  0.00  0.00    -0.239 NA
ATOM      6  H   VAL A   1      55.749  15.688  40.075  0.00  0.00    +0.142 HD
ENDBRANCH   1   5
BRANCH   1   7
ATOM      7  C   VAL A   1      53.376  14.313  41.550  0.00  0.00    +0.224 C 
ATOM      8  O   VAL A   1      52.388  15.009  41.321  0.00  0.00    -0.287 OA
ENDBRANCH   1   7
TORSDOF 3
REMARK  Name = ../refined-set-2016/1m83/1m83_pocket.pdb
REMARK  253 active torsions:
REMARK  status: ('A' for Active; 'I' for Inactive)
REMARK    1  A    between atoms: _1  and  _3
REMARK    2  A    between atoms: _3  and  _4
REMARK    3  A    between atoms: _3  and  _6
REMARK    4  A    between atoms: _6  and  _7
REMARK    5  A    between atoms: _9  and  _11
REMARK    6  A    between atoms: _11  and  _12
REMARK    7  A    between atoms: _14  and  _16
REMARK    8  A    between atoms: _16  and  _17
REMARK    9  A    between atoms: _16  and  _19
REMARK   10  A    between atoms: _19  and  _20
REMARK   11  A    between atoms: _23  and  _25
REMARK   12  A    between atoms: _25  and  _26
REMARK   13  A    between atoms: _25  and  _28
REMARK   14  A    between atoms: _28  and  _29
REMARK   15  A    between atoms: _29  and  _30
REMARK   16  A    between atoms: _36  and  _37
REMARK   17  A    between atoms: _42  and  _44
REMARK   18  A    between atoms: _44  and  _45
REMARK   19  A    between atoms: _44  and  _47
REMARK   20  A    between atoms: _47  and  _48
REMARK   21  A    between atoms: _50  and  _52
REMARK   22  A    between atoms: _52  and  _53
REMARK   23  A    between atoms: _55  and  _57
REMARK   24  A    between atoms: _57  and  _58
REMARK   25  A    between atoms: _57  and  _60
REMARK   26  A    between atoms: _63  and  _65
REMARK   27  A    between atoms: _65  and  _66
REMARK   28  A    between atoms: _65  and  _68
REMARK   29  A    between atoms: _68  and  _69
REMARK   30  A    between atoms: _72  and  _74
REMARK   31  A    between atoms: _74  and  _75
REMARK   32  A    between atoms: _74  and  _77
REMARK   33  A    between atoms: _77  and  _78
REMARK   34  A    between atoms: _81  and  _83
REMARK   35  A    between atoms: _83  and  _84
REMARK   36  A    between atoms: _83  and  _86
REMARK   37  A    between atoms: _86  and  _87
REMARK   38  A    between atoms: _90  and  _92
REMARK   39  A    between atoms: _92  and  _93
REMARK   40  A    between atoms: _95  and  _97
REMARK   41  A    between atoms: _97  and  _98
REMARK   42  A    between atoms: _97  and  _100
REMARK   43  A    between atoms: _100  and  _101
REMARK   44  A    between atoms: _106  and  _108
REMARK   45  A    between atoms: _108  and  _109
REMARK   46  A    between atoms: _108  and  _111
REMARK   47  A    between atoms: _111  and  _112
REMARK   48  A    between atoms: _117  and  _118
REMARK   49  A    between atoms: _120  and  _122
REMARK   50  A    between atoms: _122  and  _123
REMARK   51  A    between atoms: _122  and  _125
REMARK   52  A    between atoms: _125  and  _126
REMARK   53  A    between atoms: _129  and  _131
REMARK   54  A    between atoms: _131  and  _132
REMARK   55  A    between atoms: _134  and  _136
REMARK   56  A    between atoms: _136  and  _137
REMARK   57  A    between atoms: _140  and  _142
REMARK   58  A    between atoms: _142  and  _143
REMARK   59  A    between atoms: _142  and  _145
REMARK   60  A    between atoms: _145  and  _146
REMARK   61  A    between atoms: _149  and  _151
REMARK   62  A    between atoms: _151  and  _152
REMARK   63  A    between atoms: _151  and  _154
REMARK   64  A    between atoms: _154  and  _155
REMARK   65  A    between atoms: _155  and  _156
REMARK   66  A    between atoms: _156  and  _157
REMARK   67  A    between atoms: _166  and  _168
REMARK   68  A    between atoms: _168  and  _169
REMARK   69  A    between atoms: _168  and  _171
REMARK   70  A    between atoms: _171  and  _172
REMARK   71  A    between atoms: _172  and  _173
REMARK   72  A    between atoms: _178  and  _180
REMARK   73  A    between atoms: _180  and  _181
REMARK   74  A    between atoms: _180  and  _183
REMARK   75  A    between atoms: _183  and  _184
REMARK   76  A    between atoms: _190  and  _192
REMARK   77  A    between atoms: _192  and  _193
REMARK   78  A    between atoms: _192  and  _195
REMARK   79  A    between atoms: _197  and  _199
REMARK   80  A    between atoms: _199  and  _200
REMARK   81  A    between atoms: _199  and  _202
REMARK   82  A    between atoms: _205  and  _207
REMARK   83  A    between atoms: _207  and  _208
REMARK   84  A    between atoms: _207  and  _210
REMARK   85  A    between atoms: _210  and  _211
REMARK   86  A    between atoms: _216  and  _218
REMARK   87  A    between atoms: _218  and  _219
REMARK   88  A    between atoms: _222  and  _224
REMARK   89  A    between atoms: _224  and  _225
REMARK   90  A    between atoms: _224  and  _227
REMARK   91  A    between atoms: _227  and  _228
REMARK   92  A    between atoms: _231  and  _233
REMARK   93  A    between atoms: _233  and  _234
REMARK   94  A    between atoms: _233  and  _236
REMARK   95  A    between atoms: _239  and  _241
REMARK   96  A    between atoms: _241  and  _242
REMARK   97  A    between atoms: _241  and  _244
REMARK   98  A    between atoms: _244  and  _245
REMARK   99  A    between atoms: _245  and  _246
REMARK  100  A    between atoms: _251  and  _253
REMARK  101  A    between atoms: _253  and  _254
REMARK  102  A    between atoms: _253  and  _256
REMARK  103  A    between atoms: _256  and  _257
REMARK  104  A    between atoms: _260  and  _262
REMARK  105  A    between atoms: _262  and  _263
REMARK  106  A    between atoms: _262  and  _265
REMARK  107  A    between atoms: _265  and  _266
REMARK  108  A    between atoms: _271  and  _272
REMARK  109  A    between atoms: _274  and  _276
REMARK  110  A    between atoms: _276  and  _277
REMARK  111  A    between atoms: _276  and  _279
REMARK  112  A    between atoms: _279  and  _280
REMARK  113  A    between atoms: _280  and  _281
REMARK  114  A    between atoms: _286  and  _288
REMARK  115  A    between atoms: _288  and  _289
REMARK  116  A    between atoms: _288  and  _291
REMARK  117  A    between atoms: _291  and  _292
REMARK  118  A    between atoms: _292  and  _293
REMARK  119  A    between atoms: _293  and  _294
REMARK  120  A    between atoms: _294  and  _295
REMARK  121  A    between atoms: _299  and  _301
REMARK  122  A    between atoms: _301  and  _302
REMARK  123  A    between atoms: _301  and  _304
REMARK  124  A    between atoms: _304  and  _305
REMARK  125  A    between atoms: _310  and  _311
REMARK  126  A    between atoms: _313  and  _315
REMARK  127  A    between atoms: _315  and  _316
REMARK  128  A    between atoms: _315  and  _318
REMARK  129  A    between atoms: _318  and  _319
REMARK  130  A    between atoms: _319  and  _320
REMARK  131  A    between atoms: _322  and  _324
REMARK  132  A    between atoms: _324  and  _325
REMARK  133  A    between atoms: _324  and  _327
REMARK  134  A    between atoms: _331  and  _332
REMARK  135  A    between atoms: _337  and  _339
REMARK  136  A    between atoms: _339  and  _340
REMARK  137  A    between atoms: _339  and  _342
REMARK  138  A    between atoms: _345  and  _347
REMARK  139  A    between atoms: _347  and  _348
REMARK  140  A    between atoms: _350  and  _352
REMARK  141  A    between atoms: _352  and  _353
REMARK  142  A    between atoms: _352  and  _355
REMARK  143  A    between atoms: _355  and  _356
REMARK  144  A    between atoms: _356  and  _357
REMARK  145  A    between atoms: _360  and  _362
REMARK  146  A    between atoms: _362  and  _363
REMARK  147  A    between atoms: _362  and  _365
REMARK  148  A    between atoms: _365  and  _366
REMARK  149  A    between atoms: _369  and  _371
REMARK  150  A    between atoms: _371  and  _372
REMARK  151  A    between atoms: _371  and  _374
REMARK  152  A    between atoms: _374  and  _375
REMARK  153  A    between atoms: _375  and  _376
REMARK  154  A    between atoms: _381  and  _383
REMARK  155  A    between atoms: _383  and  _384
REMARK  156  A    between atoms: _383  and  _386
REMARK  157  A    between atoms: _386  and  _387
REMARK  158  A    between atoms: _387  and  _388
REMARK  159  A    between atoms: _388  and  _389
REMARK  160  A    between atoms: _389  and  _390
REMARK  161  A    between atoms: _394  and  _396
REMARK  162  A    between atoms: _396  and  _397
REMARK  163  A    between atoms: _396  and  _399
REMARK  164  A    between atoms: _399  and  _400
REMARK  165  A    between atoms: _405  and  _407
REMARK  166  A    between atoms: _407  and  _408
REMARK  167  A    between atoms: _407  and  _410
REMARK  168  A    between atoms: _410  and  _411
REMARK  169  A    between atoms: _414  and  _416
REMARK  170  A    between atoms: _416  and  _417
REMARK  171  A    between atoms: _416  and  _419
REMARK  172  A    between atoms: _419  and  _420
REMARK  173  A    between atoms: _420  and  _421
REMARK  174  A    between atoms: _421  and  _422
REMARK  175  A    between atoms: _431  and  _433
REMARK  176  A    between atoms: _433  and  _434
REMARK  177  A    between atoms: _433  and  _436
REMARK  178  A    between atoms: _436  and  _437
REMARK  179  A    between atoms: _441  and  _442
REMARK  180  A    between atoms: _447  and  _449
REMARK  181  A    between atoms: _449  and  _450
REMARK  182  A    between atoms: _449  and  _452
REMARK  183  A    between atoms: _455  and  _457
REMARK  184  A    between atoms: _457  and  _458
REMARK  185  A    between atoms: _460  and  _462
REMARK  186  A    between atoms: _462  and  _463
REMARK  187  A    between atoms: _466  and  _468
REMARK  188  A    between atoms: _468  and  _469
REMARK  189  A    between atoms: _468  and  _471
REMARK  190  A    between atoms: _471  and  _472
REMARK  191  A    between atoms: _472  and  _473
REMARK  192  A    between atoms: _473  and  _474
REMARK  193  A    between atoms: _483  and  _485
REMARK  194  A    between atoms: _485  and  _486
REMARK  195  A    between atoms: _485  and  _488
REMARK  196  A    between atoms: _488  and  _489
REMARK  197  A    between atoms: _492  and  _494
REMARK  198  A    between atoms: _494  and  _495
REMARK  199  A    between atoms: _494  and  _497
REMARK  200  A    between atoms: _497  and  _498
REMARK  201  A    between atoms: _498  and  _499
REMARK  202  A    between atoms: _501  and  _503
REMARK  203  A    between atoms: _503  and  _504
REMARK  204  A    between atoms: _503  and  _506
REMARK  205  A    between atoms: _506  and  _507
REMARK  206  A    between atoms: _509  and  _511
REMARK  207  A    between atoms: _511  and  _512
REMARK  208  A    between atoms: _511  and  _514
REMARK  209  A    between atoms: _514  and  _515
REMARK  210  A    between atoms: _515  and  _516
REMARK  211  A    between atoms: _516  and  _517
REMARK  212  A    between atoms: _517  and  _518
REMARK  213  A    between atoms: _522  and  _524
REMARK  214  A    between atoms: _524  and  _525
REMARK  215  A    between atoms: _524  and  _527
REMARK  216  A    between atoms: _527  and  _528
REMARK  217  A    between atoms: _528  and  _529
REMARK  218  A    between atoms: _529  and  _530
REMARK  219  A    between atoms: _530  and  _531
REMARK  220  A    between atoms: _535  and  _537
REMARK  221  A    between atoms: _537  and  _538
REMARK  222  A    between atoms: _537  and  _540
REMARK  223  A    between atoms: _540  and  _541
REMARK  224  A    between atoms: _541  and  _542
REMARK  225  A    between atoms: _544  and  _546
REMARK  226  A    between atoms: _546  and  _547
REMARK  227  A    between atoms: _546  and  _549
REMARK  228  A    between atoms: _549  and  _550
REMARK  229  A    between atoms: _552  and  _554
REMARK  230  A    between atoms: _554  and  _555
REMARK  231  A    between atoms: _554  and  _557
REMARK  232  A    between atoms: _557  and  _558
REMARK  233  A    between atoms: _558  and  _559
REMARK  234  A    between atoms: _559  and  _560
REMARK  235  A    between atoms: _560  and  _561
REMARK  236  A    between atoms: _565  and  _567
REMARK  237  A    between atoms: _567  and  _568
REMARK  238  A    between atoms: _567  and  _570
REMARK  239  A    between atoms: _570  and  _571
REMARK  240  A    between atoms: _573  and  _575
REMARK  241  A    between atoms: _575  and  _576
REMARK  242  A    between atoms: _575  and  _578
REMARK  243  A    between atoms: _578  and  _579
REMARK  244  A    between atoms: _583  and  _584
REMARK  245  A    between atoms: _589  and  _591
REMARK  246  A    between atoms: _591  and  _592
REMARK  247  A    between atoms: _591  and  _594
REMARK  248  A    between atoms: _594  and  _595
REMARK  249  A    between atoms: _600  and  _601
REMARK  250  A    between atoms: _603  and  _605
REMARK  251  A    between atoms: _605  and  _606
REMARK  252  A    between atoms: _605  and  _608
REMARK  253  A    between atoms: _608  and  _609
REMARK                            x       y       z     vdW  Elec       q    Type
REMARK                         _______ _______ _______ _____ _____    ______ ____
ROOT
ATOM      1  CA  HIS A   1      49.846  16.453  43.721  0.00  0.00    +0.151 C 
ENDROOT
BRANCH   1   2
ATOM      2  C   HIS A   1      48.858  16.301  42.564  0.00  0.00    +0.239 C 
ATOM      3  O   HIS A   1      47.823  16.948  42.539  0.00  0.00    -0.274 OA
ATOM      4  N   ALA A   2      49.179  15.429  41.611  0.00  0.00    -0.298 N 
ATOM      5  H   ALA A   2      50.043  14.859  41.713  0.00  0.00    +0.150 HD
BRANCH   4   6
ATOM      6  CA  ALA A   2      48.343  15.255  40.424  0.00  0.00    +0.137 C 
ATOM      7  CB  ALA A   2      49.084  14.434  39.334  0.00  0.00    +0.030 C 
BRANCH   6   8
ATOM      8  C   ALA A   2      46.952  14.694  40.708  0.00  0.00    +0.227 C 
ATOM      9  O   ALA A   2      45.990  15.037  40.028  0.00  0.00    -0.286 OA
ENDBRANCH   6   8
ENDBRANCH   4   6
ENDBRANCH   1   2
BRANCH   1  10
ATOM     10  N   HIS A   1      50.443  15.163  43.984  0.00  0.00    -0.238 NA
ATOM     11  H   HIS A   1      51.430  14.990  43.705  0.00  0.00    +0.142 HD
ENDBRANCH   1  10
BRANCH   1  12
ATOM     12  CB  HIS A   1      50.921  17.523  43.375  0.00  0.00    +0.074 C 
BRANCH  12  13
ATOM     13  CG  HIS A   1      51.439  18.257  44.573  0.00  0.00    +0.082 A 
ATOM     14  CD2 HIS A   1      50.856  19.187  45.366  0.00  0.00    +0.115 A 
ATOM     15  NE2 HIS A   1      51.748  19.485  46.366  0.00  0.00    -0.221 NA
ATOM     16  CE1 HIS A   1      52.827  18.734  46.219  0.00  0.00    +0.199 A 
ATOM     17  ND1 HIS A   1      52.663  17.976  45.149  0.00  0.00    -0.227 NA
ENDBRANCH  12  13
ENDBRANCH   1  12
TORSDOF 6
REMARK  Name = ../refined-set-2016/1m83/1m83_pocket.pdb
REMARK  253 active torsions:
REMARK  status: ('A' for Active; 'I' for Inactive)
REMARK    1  A    between atoms: _1  and  _3
REMARK    2  A    between atoms: _3  and  _4
REMARK    3  A    between atoms: _3  and  _6
REMARK    4  A    between atoms: _6  and  _7
REMARK    5  A    between atoms: _9  and  _11
REMARK    6  A    between atoms: _11  and  _12
REMARK    7  A    between atoms: _14  and  _16
REMARK    8  A    between atoms: _16  and  _17
REMARK    9  A    between atoms: _16  and  _19
REMARK   10  A    between atoms: _19  and  _20
REMARK   11  A    between atoms: _23  and  _25
REMARK   12  A    between atoms: _25  and  _26
REMARK   13  A    between atoms: _25  and  _28
REMARK   14  A    between atoms: _28  and  _29
REMARK   15  A    between atoms: _29  and  _30
REMARK   16  A    between atoms: _36  and  _37
REMARK   17  A    between atoms: _42  and  _44
REMARK   18  A    between atoms: _44  and  _45
REMARK   19  A    between atoms: _44  and  _47
REMARK   20  A    between atoms: _47  and  _48
REMARK   21  A    between atoms: _50  and  _52
REMARK   22  A    between atoms: _52  and  _53
REMARK   23  A    between atoms: _55  and  _57
REMARK   24  A    between atoms: _57  and  _58
REMARK   25  A    between atoms: _57  and  _60
REMARK   26  A    between atoms: _63  and  _65
REMARK   27  A    between atoms: _65  and  _66
REMARK   28  A    between atoms: _65  and  _68
REMARK   29  A    between atoms: _68  and  _69
REMARK   30  A    between atoms: _72  and  _74
REMARK   31  A    between atoms: _74  and  _75
REMARK   32  A    between atoms: _74  and  _77
REMARK   33  A    between atoms: _77  and  _78
REMARK   34  A    between atoms: _81  and  _83
REMARK   35  A    between atoms: _83  and  _84
REMARK   36  A    between atoms: _83  and  _86
REMARK   37  A    between atoms: _86  and  _87
REMARK   38  A    between atoms: _90  and  _92
REMARK   39  A    between atoms: _92  and  _93
REMARK   40  A    between atoms: _95  and  _97
REMARK   41  A    between atoms: _97  and  _98
REMARK   42  A    between atoms: _97  and  _100
REMARK   43  A    between atoms: _100  and  _101
REMARK   44  A    between atoms: _106  and  _108
REMARK   45  A    between atoms: _108  and  _109
REMARK   46  A    between atoms: _108  and  _111
REMARK   47  A    between atoms: _111  and  _112
REMARK   48  A    between atoms: _117  and  _118
REMARK   49  A    between atoms: _120  and  _122
REMARK   50  A    between atoms: _122  and  _123
REMARK   51  A    between atoms: _122  and  _125
REMARK   52  A    between atoms: _125  and  _126
REMARK   53  A    between atoms: _129  and  _131
REMARK   54  A    between atoms: _131  and  _132
REMARK   55  A    between atoms: _134  and  _136
REMARK   56  A    between atoms: _136  and  _137
REMARK   57  A    between atoms: _140  and  _142
REMARK   58  A    between atoms: _142  and  _143
REMARK   59  A    between atoms: _142  and  _145
REMARK   60  A    between atoms: _145  and  _146
REMARK   61  A    between atoms: _149  and  _151
REMARK   62  A    between atoms: _151  and  _152
REMARK   63  A    between atoms: _151  and  _154
REMARK   64  A    between atoms: _154  and  _155
REMARK   65  A    between atoms: _155  and  _156
REMARK   66  A    between atoms: _156  and  _157
REMARK   67  A    between atoms: _166  and  _168
REMARK   68  A    between atoms: _168  and  _169
REMARK   69  A    between atoms: _168  and  _171
REMARK   70  A    between atoms: _171  and  _172
REMARK   71  A    between atoms: _172  and  _173
REMARK   72  A    between atoms: _178  and  _180
REMARK   73  A    between atoms: _180  and  _181
REMARK   74  A    between atoms: _180  and  _183
REMARK   75  A    between atoms: _183  and  _184
REMARK   76  A    between atoms: _190  and  _192
REMARK   77  A    between atoms: _192  and  _193
REMARK   78  A    between atoms: _192  and  _195
REMARK   79  A    between atoms: _197  and  _199
REMARK   80  A    between atoms: _199  and  _200
REMARK   81  A    between atoms: _199  and  _202
REMARK   82  A    between atoms: _205  and  _207
REMARK   83  A    between atoms: _207  and  _208
REMARK   84  A    between atoms: _207  and  _210
REMARK   85  A    between atoms: _210  and  _211
REMARK   86  A    between atoms: _216  and  _218
REMARK   87  A    between atoms: _218  and  _219
REMARK   88  A    between atoms: _222  and  _224
REMARK   89  A    between atoms: _224  and  _225
REMARK   90  A    between atoms: _224  and  _227
REMARK   91  A    between atoms: _227  and  _228
REMARK   92  A    between atoms: _231  and  _233
REMARK   93  A    between atoms: _233  and  _234
REMARK   94  A    between atoms: _233  and  _236
REMARK   95  A    between atoms: _239  and  _241
REMARK   96  A    between atoms: _241  and  _242
REMARK   97  A    between atoms: _241  and  _244
REMARK   98  A    between atoms: _244  and  _245
REMARK   99  A    between atoms: _245  and  _246
REMARK  100  A    between atoms: _251  and  _253
REMARK  101  A    between atoms: _253  and  _254
REMARK  102  A    between atoms: _253  and  _256
REMARK  103  A    between atoms: _256  and  _257
REMARK  104  A    between atoms: _260  and  _262
REMARK  105  A    between atoms: _262  and  _263
REMARK  106  A    between atoms: _262  and  _265
REMARK  107  A    between atoms: _265  and  _266
REMARK  108  A    between atoms: _271  and  _272
REMARK  109  A    between atoms: _274  and  _276
REMARK  110  A    between atoms: _276  and  _277
REMARK  111  A    between atoms: _276  and  _279
REMARK  112  A    between atoms: _279  and  _280
REMARK  113  A    between atoms: _280  and  _281
REMARK  114  A    between atoms: _286  and  _288
REMARK  115  A    between atoms: _288  and  _289
REMARK  116  A    between atoms: _288  and  _291
REMARK  117  A    between atoms: _291  and  _292
REMARK  118  A    between atoms: _292  and  _293
REMARK  119  A    between atoms: _293  and  _294
REMARK  120  A    between atoms: _294  and  _295
REMARK  121  A    between atoms: _299  and  _301
REMARK  122  A    between atoms: _301  and  _302
REMARK  123  A    between atoms: _301  and  _304
REMARK  124  A    between atoms: _304  and  _305
REMARK  125  A    between atoms: _310  and  _311
REMARK  126  A    between atoms: _313  and  _315
REMARK  127  A    between atoms: _315  and  _316
REMARK  128  A    between atoms: _315  and  _318
REMARK  129  A    between atoms: _318  and  _319
REMARK  130  A    between atoms: _319  and  _320
REMARK  131  A    between atoms: _322  and  _324
REMARK  132  A    between atoms: _324  and  _325
REMARK  133  A    between atoms: _324  and  _327
REMARK  134  A    between atoms: _331  and  _332
REMARK  135  A    between atoms: _337  and  _339
REMARK  136  A    between atoms: _339  and  _340
REMARK  137  A    between atoms: _339  and  _342
REMARK  138  A    between atoms: _345  and  _347
REMARK  139  A    between atoms: _347  and  _348
REMARK  140  A    between atoms: _350  and  _352
REMARK  141  A    between atoms: _352  and  _353
REMARK  142  A    between atoms: _352  and  _355
REMARK  143  A    between atoms: _355  and  _356
REMARK  144  A    between atoms: _356  and  _357
REMARK  145  A    between atoms: _360  and  _362
REMARK  146  A    between atoms: _362  and  _363
REMARK  147  A    between atoms: _362  and  _365
REMARK  148  A    between atoms: _365  and  _366
REMARK  149  A    between atoms: _369  and  _371
REMARK  150  A    between atoms: _371  and  _372
REMARK  151  A    between atoms: _371  and  _374
REMARK  152  A    between atoms: _374  and  _375
REMARK  153  A    between atoms: _375  and  _376
REMARK  154  A    between atoms: _381  and  _383
REMARK  155  A    between atoms: _383  and  _384
REMARK  156  A    between atoms: _383  and  _386
REMARK  157  A    between atoms: _386  and  _387
REMARK  158  A    between atoms: _387  and  _388
REMARK  159  A    between atoms: _388  and  _389
REMARK  160  A    between atoms: _389  and  _390
REMARK  161  A    between atoms: _394  and  _396
REMARK  162  A    between atoms: _396  and  _397
REMARK  163  A    between atoms: _396  and  _399
REMARK  164  A    between atoms: _399  and  _400
REMARK  165  A    between atoms: _405  and  _407
REMARK  166  A    between atoms: _407  and  _408
REMARK  167  A    between atoms: _407  and  _410
REMARK  168  A    between atoms: _410  and  _411
REMARK  169  A    between atoms: _414  and  _416
REMARK  170  A    between atoms: _416  and  _417
REMARK  171  A    between atoms: _416  and  _419
REMARK  172  A    between atoms: _419  and  _420
REMARK  173  A    between atoms: _420  and  _421
REMARK  174  A    between atoms: _421  and  _422
REMARK  175  A    between atoms: _431  and  _433
REMARK  176  A    between atoms: _433  and  _434
REMARK  177  A    between atoms: _433  and  _436
REMARK  178  A    between atoms: _436  and  _437
REMARK  179  A    between atoms: _441  and  _442
REMARK  180  A    between atoms: _447  and  _449
REMARK  181  A    between atoms: _449  and  _450
REMARK  182  A    between atoms: _449  and  _452
REMARK  183  A    between atoms: _455  and  _457
REMARK  184  A    between atoms: _457  and  _458
REMARK  185  A    between atoms: _460  and  _462
REMARK  186  A    between atoms: _462  and  _463
REMARK  187  A    between atoms: _466  and  _468
REMARK  188  A    between atoms: _468  and  _469
REMARK  189  A    between atoms: _468  and  _471
REMARK  190  A    between atoms: _471  and  _472
REMARK  191  A    between atoms: _472  and  _473
REMARK  192  A    between atoms: _473  and  _474
REMARK  193  A    between atoms: _483  and  _485
REMARK  194  A    between atoms: _485  and  _486
REMARK  195  A    between atoms: _485  and  _488
REMARK  196  A    between atoms: _488  and  _489
REMARK  197  A    between atoms: _492  and  _494
REMARK  198  A    between atoms: _494  and  _495
REMARK  199  A    between atoms: _494  and  _497
REMARK  200  A    between atoms: _497  and  _498
REMARK  201  A    between atoms: _498  and  _499
REMARK  202  A    between atoms: _501  and  _503
REMARK  203  A    between atoms: _503  and  _504
REMARK  204  A    between atoms: _503  and  _506
REMARK  205  A    between atoms: _506  and  _507
REMARK  206  A    between atoms: _509  and  _511
REMARK  207  A    between atoms: _511  and  _512
REMARK  208  A    between atoms: _511  and  _514
REMARK  209  A    between atoms: _514  and  _515
REMARK  210  A    between atoms: _515  and  _516
REMARK  211  A    between atoms: _516  and  _517
REMARK  212  A    between atoms: _517  and  _518
REMARK  213  A    between atoms: _522  and  _524
REMARK  214  A    between atoms: _524  and  _525
REMARK  215  A    between atoms: _524  and  _527
REMARK  216  A    between atoms: _527  and  _528
REMARK  217  A    between atoms: _528  and  _529
REMARK  218  A    between atoms: _529  and  _530
REMARK  219  A    between atoms: _530  and  _531
REMARK  220  A    between atoms: _535  and  _537
REMARK  221  A    between atoms: _537  and  _538
REMARK  222  A    between atoms: _537  and  _540
REMARK  223  A    between atoms: _540  and  _541
REMARK  224  A    between atoms: _541  and  _542
REMARK  225  A    between atoms: _544  and  _546
REMARK  226  A    between atoms: _546  and  _547
REMARK  227  A    between atoms: _546  and  _549
REMARK  228  A    between atoms: _549  and  _550
REMARK  229  A    between atoms: _552  and  _554
REMARK  230  A    between atoms: _554  and  _555
REMARK  231  A    between atoms: _554  and  _557
REMARK  232  A    between atoms: _557  and  _558
REMARK  233  A    between atoms: _558  and  _559
REMARK  234  A    between atoms: _559  and  _560
REMARK  235  A    between atoms: _560  and  _561
REMARK  236  A    between atoms: _565  and  _567
REMARK  237  A    between atoms: _567  and  _568
REMARK  238  A    between atoms: _567  and  _570
REMARK  239  A    between atoms: _570  and  _571
REMARK  240  A    between atoms: _573  and  _575
REMARK  241  A    between atoms: _575  and  _576
REMARK  242  A    between atoms: _575  and  _578
REMARK  243  A    between atoms: _578  and  _579
REMARK  244  A    between atoms: _583  and  _584
REMARK  245  A    between atoms: _589  and  _591
REMARK  246  A    between atoms: _591  and  _592
REMARK  247  A    between atoms: _591  and  _594
REMARK  248  A    between atoms: _594  and  _595
REMARK  249  A    between atoms: _600  and  _601
REMARK  250  A    between atoms: _603  and  _605
REMARK  251  A    between atoms: _605  and  _606
REMARK  252  A    between atoms: _605  and  _608
REMARK  253  A    between atoms: _608  and  _609
REMARK                            x       y       z     vdW  Elec       q    Type
REMARK                         _______ _______ _______ _____ _____    ______ ____
ROOT
ATOM      1  C   THR A   1      42.883  16.630  42.956  0.00  0.00    +0.241 C 
ATOM      2  O   THR A   1      41.855  17.062  43.462  0.00  0.00    -0.274 OA
ATOM      3  N   VAL A   2      42.956  16.262  41.680  0.00  0.00    -0.298 N 
ATOM      4  H   VAL A   2      43.874  15.947  41.305  0.00  0.00    +0.150 HD
ENDROOT
BRANCH   1   5
ATOM      5  CA  THR A   1      44.134  16.383  43.815  0.00  0.00    +0.172 C 
BRANCH   5   6
ATOM      6  N   THR A   1      45.016  15.446  43.129  0.00  0.00    -0.236 NA
ATOM      7  H   THR A   1      45.955  15.756  42.807  0.00  0.00    +0.142 HD
ENDBRANCH   5   6
BRANCH   5   8
ATOM      8  CB  THR A   1      44.811  17.705  44.252  0.00  0.00    +0.135 C 
ATOM      9  CG2 THR A   1      45.690  17.482  45.458  0.00  0.00    +0.034 C 
BRANCH   8  10
ATOM     10  OG1 THR A   1      45.592  18.255  43.185  0.00  0.00    -0.383 OA
ATOM     11  HG1 THR A   1      46.294  17.608  42.924  0.00  0.00    +0.210 HD
ENDBRANCH   8  10
ENDBRANCH   5   8
ENDBRANCH   1   5
BRANCH   3  12
ATOM     12  CA  VAL A   2      41.797  16.281  40.776  0.00  0.00    +0.137 C 
BRANCH  12  13
ATOM     13  CB  VAL A   2      41.796  17.495  39.784  0.00  0.00    +0.026 C 
ATOM     14  CG2 VAL A   2      41.740  18.804  40.553  0.00  0.00    +0.002 C 
ATOM     15  CG1 VAL A   2      43.014  17.475  38.850  0.00  0.00    +0.002 C 
ENDBRANCH  12  13
BRANCH  12  16
ATOM     16  C   VAL A   2      41.766  14.931  40.048  0.00  0.00    +0.227 C 
ATOM     17  O   VAL A   2      42.738  14.180  40.107  0.00  0.00    -0.286 OA
ENDBRANCH  12  16
ENDBRANCH   3  12
TORSDOF 7
REMARK  Name = ../refined-set-2016/1m83/1m83_pocket.pdb
REMARK  253 active torsions:
REMARK  status: ('A' for Active; 'I' for Inactive)
REMARK    1  A    between atoms: _1  and  _3
REMARK    2  A    between atoms: _3  and  _4
REMARK    3  A    between atoms: _3  and  _6
REMARK    4  A    between atoms: _6  and  _7
REMARK    5  A    between atoms: _9  and  _11
REMARK    6  A    between atoms: _11  and  _12
REMARK    7  A    between atoms: _14  and  _16
REMARK    8  A    between atoms: _16  and  _17
REMARK    9  A    between atoms: _16  and  _19
REMARK   10  A    between atoms: _19  and  _20
REMARK   11  A    between atoms: _23  and  _25
REMARK   12  A    between atoms: _25  and  _26
REMARK   13  A    between atoms: _25  and  _28
REMARK   14  A    between atoms: _28  and  _29
REMARK   15  A    between atoms: _29  and  _30
REMARK   16  A    between atoms: _36  and  _37
REMARK   17  A    between atoms: _42  and  _44
REMARK   18  A    between atoms: _44  and  _45
REMARK   19  A    between atoms: _44  and  _47
REMARK   20  A    between atoms: _47  and  _48
REMARK   21  A    between atoms: _50  and  _52
REMARK   22  A    between atoms: _52  and  _53
REMARK   23  A    between atoms: _55  and  _57
REMARK   24  A    between atoms: _57  and  _58
REMARK   25  A    between atoms: _57  and  _60
REMARK   26  A    between atoms: _63  and  _65
REMARK   27  A    between atoms: _65  and  _66
REMARK   28  A    between atoms: _65  and  _68
REMARK   29  A    between atoms: _68  and  _69
REMARK   30  A    between atoms: _72  and  _74
REMARK   31  A    between atoms: _74  and  _75
REMARK   32  A    between atoms: _74  and  _77
REMARK   33  A    between atoms: _77  and  _78
REMARK   34  A    between atoms: _81  and  _83
REMARK   35  A    between atoms: _83  and  _84
REMARK   36  A    between atoms: _83  and  _86
REMARK   37  A    between atoms: _86  and  _87
REMARK   38  A    between atoms: _90  and  _92
REMARK   39  A    between atoms: _92  and  _93
REMARK   40  A    between atoms: _95  and  _97
REMARK   41  A    between atoms: _97  and  _98
REMARK   42  A    between atoms: _97  and  _100
REMARK   43  A    between atoms: _100  and  _101
REMARK   44  A    between atoms: _106  and  _108
REMARK   45  A    between atoms: _108  and  _109
REMARK   46  A    between atoms: _108  and  _111
REMARK   47  A    between atoms: _111  and  _112
REMARK   48  A    between atoms: _117  and  _118
REMARK   49  A    between atoms: _120  and  _122
REMARK   50  A    between atoms: _122  and  _123
REMARK   51  A    between atoms: _122  and  _125
REMARK   52  A    between atoms: _125  and  _126
REMARK   53  A    between atoms: _129  and  _131
REMARK   54  A    between atoms: _131  and  _132
REMARK   55  A    between atoms: _134  and  _136
REMARK   56  A    between atoms: _136  and  _137
REMARK   57  A    between atoms: _140  and  _142
REMARK   58  A    between atoms: _142  and  _143
REMARK   59  A    between atoms: _142  and  _145
REMARK   60  A    between atoms: _145  and  _146
REMARK   61  A    between atoms: _149  and  _151
REMARK   62  A    between atoms: _151  and  _152
REMARK   63  A    between atoms: _151  and  _154
REMARK   64  A    between atoms: _154  and  _155
REMARK   65  A    between atoms: _155  and  _156
REMARK   66  A    between atoms: _156  and  _157
REMARK   67  A    between atoms: _166  and  _168
REMARK   68  A    between atoms: _168  and  _169
REMARK   69  A    between atoms: _168  and  _171
REMARK   70  A    between atoms: _171  and  _172
REMARK   71  A    between atoms: _172  and  _173
REMARK   72  A    between atoms: _178  and  _180
REMARK   73  A    between atoms: _180  and  _181
REMARK   74  A    between atoms: _180  and  _183
REMARK   75  A    between atoms: _183  and  _184
REMARK   76  A    between atoms: _190  and  _192
REMARK   77  A    between atoms: _192  and  _193
REMARK   78  A    between atoms: _192  and  _195
REMARK   79  A    between atoms: _197  and  _199
REMARK   80  A    between atoms: _199  and  _200
REMARK   81  A    between atoms: _199  and  _202
REMARK   82  A    between atoms: _205  and  _207
REMARK   83  A    between atoms: _207  and  _208
REMARK   84  A    between atoms: _207  and  _210
REMARK   85  A    between atoms: _210  and  _211
REMARK   86  A    between atoms: _216  and  _218
REMARK   87  A    between atoms: _218  and  _219
REMARK   88  A    between atoms: _222  and  _224
REMARK   89  A    between atoms: _224  and  _225
REMARK   90  A    between atoms: _224  and  _227
REMARK   91  A    between atoms: _227  and  _228
REMARK   92  A    between atoms: _231  and  _233
REMARK   93  A    between atoms: _233  and  _234
REMARK   94  A    between atoms: _233  and  _236
REMARK   95  A    between atoms: _239  and  _241
REMARK   96  A    between atoms: _241  and  _242
REMARK   97  A    between atoms: _241  and  _244
REMARK   98  A    between atoms: _244  and  _245
REMARK   99  A    between atoms: _245  and  _246
REMARK  100  A    between atoms: _251  and  _253
REMARK  101  A    between atoms: _253  and  _254
REMARK  102  A    between atoms: _253  and  _256
REMARK  103  A    between atoms: _256  and  _257
REMARK  104  A    between atoms: _260  and  _262
REMARK  105  A    between atoms: _262  and  _263
REMARK  106  A    between atoms: _262  and  _265
REMARK  107  A    between atoms: _265  and  _266
REMARK  108  A    between atoms: _271  and  _272
REMARK  109  A    between atoms: _274  and  _276
REMARK  110  A    between atoms: _276  and  _277
REMARK  111  A    between atoms: _276  and  _279
REMARK  112  A    between atoms: _279  and  _280
REMARK  113  A    between atoms: _280  and  _281
REMARK  114  A    between atoms: _286  and  _288
REMARK  115  A    between atoms: _288  and  _289
REMARK  116  A    between atoms: _288  and  _291
REMARK  117  A    between atoms: _291  and  _292
REMARK  118  A    between atoms: _292  and  _293
REMARK  119  A    between atoms: _293  and  _294
REMARK  120  A    between atoms: _294  and  _295
REMARK  121  A    between atoms: _299  and  _301
REMARK  122  A    between atoms: _301  and  _302
REMARK  123  A    between atoms: _301  and  _304
REMARK  124  A    between atoms: _304  and  _305
REMARK  125  A    between atoms: _310  and  _311
REMARK  126  A    between atoms: _313  and  _315
REMARK  127  A    between atoms: _315  and  _316
REMARK  128  A    between atoms: _315  and  _318
REMARK  129  A    between atoms: _318  and  _319
REMARK  130  A    between atoms: _319  and  _320
REMARK  131  A    between atoms: _322  and  _324
REMARK  132  A    between atoms: _324  and  _325
REMARK  133  A    between atoms: _324  and  _327
REMARK  134  A    between atoms: _331  and  _332
REMARK  135  A    between atoms: _337  and  _339
REMARK  136  A    between atoms: _339  and  _340
REMARK  137  A    between atoms: _339  and  _342
REMARK  138  A    between atoms: _345  and  _347
REMARK  139  A    between atoms: _347  and  _348
REMARK  140  A    between atoms: _350  and  _352
REMARK  141  A    between atoms: _352  and  _353
REMARK  142  A    between atoms: _352  and  _355
REMARK  143  A    between atoms: _355  and  _356
REMARK  144  A    between atoms: _356  and  _357
REMARK  145  A    between atoms: _360  and  _362
REMARK  146  A    between atoms: _362  and  _363
REMARK  147  A    between atoms: _362  and  _365
REMARK  148  A    between atoms: _365  and  _366
REMARK  149  A    between atoms: _369  and  _371
REMARK  150  A    between atoms: _371  and  _372
REMARK  151  A    between atoms: _371  and  _374
REMARK  152  A    between atoms: _374  and  _375
REMARK  153  A    between atoms: _375  and  _376
REMARK  154  A    between atoms: _381  and  _383
REMARK  155  A    between atoms: _383  and  _384
REMARK  156  A    between atoms: _383  and  _386
REMARK  157  A    between atoms: _386  and  _387
REMARK  158  A    between atoms: _387  and  _388
REMARK  159  A    between atoms: _388  and  _389
REMARK  160  A    between atoms: _389  and  _390
REMARK  161  A    between atoms: _394  and  _396
REMARK  162  A    between atoms: _396  and  _397
REMARK  163  A    between atoms: _396  and  _399
REMARK  164  A    between atoms: _399  and  _400
REMARK  165  A    between atoms: _405  and  _407
REMARK  166  A    between atoms: _407  and  _408
REMARK  167  A    between atoms: _407  and  _410
REMARK  168  A    between atoms: _410  and  _411
REMARK  169  A    between atoms: _414  and  _416
REMARK  170  A    between atoms: _416  and  _417
REMARK  171  A    between atoms: _416  and  _419
REMARK  172  A    between atoms: _419  and  _420
REMARK  173  A    between atoms: _420  and  _421
REMARK  174  A    between atoms: _421  and  _422
REMARK  175  A    between atoms: _431  and  _433
REMARK  176  A    between atoms: _433  and  _434
REMARK  177  A    between atoms: _433  and  _436
REMARK  178  A    between atoms: _436  and  _437
REMARK  179  A    between atoms: _441  and  _442
REMARK  180  A    between atoms: _447  and  _449
REMARK  181  A    between atoms: _449  and  _450
REMARK  182  A    between atoms: _449  and  _452
REMARK  183  A    between atoms: _455  and  _457
REMARK  184  A    between atoms: _457  and  _458
REMARK  185  A    between atoms: _460  and  _462
REMARK  186  A    between atoms: _462  and  _463
REMARK  187  A    between atoms: _466  and  _468
REMARK  188  A    between atoms: _468  and  _469
REMARK  189  A    between atoms: _468  and  _471
REMARK  190  A    between atoms: _471  and  _472
REMARK  191  A    between atoms: _472  and  _473
REMARK  192  A    between atoms: _473  and  _474
REMARK  193  A    between atoms: _483  and  _485
REMARK  194  A    between atoms: _485  and  _486
REMARK  195  A    between atoms: _485  and  _488
REMARK  196  A    between atoms: _488  and  _489
REMARK  197  A    between atoms: _492  and  _494
REMARK  198  A    between atoms: _494  and  _495
REMARK  199  A    between atoms: _494  and  _497
REMARK  200  A    between atoms: _497  and  _498
REMARK  201  A    between atoms: _498  and  _499
REMARK  202  A    between atoms: _501  and  _503
REMARK  203  A    between atoms: _503  and  _504
REMARK  204  A    between atoms: _503  and  _506
REMARK  205  A    between atoms: _506  and  _507
REMARK  206  A    between atoms: _509  and  _511
REMARK  207  A    between atoms: _511  and  _512
REMARK  208  A    between atoms: _511  and  _514
REMARK  209  A    between atoms: _514  and  _515
REMARK  210  A    between atoms: _515  and  _516
REMARK  211  A    between atoms: _516  and  _517
REMARK  212  A    between atoms: _517  and  _518
REMARK  213  A    between atoms: _522  and  _524
REMARK  214  A    between atoms: _524  and  _525
REMARK  215  A    between atoms: _524  and  _527
REMARK  216  A    between atoms: _527  and  _528
REMARK  217  A    between atoms: _528  and  _529
REMARK  218  A    between atoms: _529  and  _530
REMARK  219  A    between atoms: _530  and  _531
REMARK  220  A    between atoms: _535  and  _537
REMARK  221  A    between atoms: _537  and  _538
REMARK  222  A    between atoms: _537  and  _540
REMARK  223  A    between atoms: _540  and  _541
REMARK  224  A    between atoms: _541  and  _542
REMARK  225  A    between atoms: _544  and  _546
REMARK  226  A    between atoms: _546  and  _547
REMARK  227  A    between atoms: _546  and  _549
REMARK  228  A    between atoms: _549  and  _550
REMARK  229  A    between atoms: _552  and  _554
REMARK  230  A    between atoms: _554  and  _555
REMARK  231  A    between atoms: _554  and  _557
REMARK  232  A    between atoms: _557  and  _558
REMARK  233  A    between atoms: _558  and  _559
REMARK  234  A    between atoms: _559  and  _560
REMARK  235  A    between atoms: _560  and  _561
REMARK  236  A    between atoms: _565  and  _567
REMARK  237  A    between atoms: _567  and  _568
REMARK  238  A    between atoms: _567  and  _570
REMARK  239  A    between atoms: _570  and  _571
REMARK  240  A    between atoms: _573  and  _575
REMARK  241  A    between atoms: _575  and  _576
REMARK  242  A    between atoms: _575  and  _578
REMARK  243  A    between atoms: _578  and  _579
REMARK  244  A    between atoms: _583  and  _584
REMARK  245  A    between atoms: _589  and  _591
REMARK  246  A    between atoms: _591  and  _592
REMARK  247  A    between atoms: _591  and  _594
REMARK  248  A    between atoms: _594  and  _595
REMARK  249  A    between atoms: _600  and  _601
REMARK  250  A    between atoms: _603  and  _605
REMARK  251  A    between atoms: _605  and  _606
REMARK  252  A    between atoms: _605  and  _608
REMARK  253  A    between atoms: _608  and  _609
REMARK                            x       y       z     vdW  Elec       q    Type
REMARK                         _______ _______ _______ _____ _____    ______ ____
ROOT
ATOM      1  CB  GLN A   1      44.720  11.367  37.500  0.00  0.00    +0.035 C 
ENDROOT
BRANCH   1   2
ATOM      2  CA  GLN A   1      43.302  11.450  36.890  0.00  0.00    +0.134 C 
BRANCH   2   3
ATOM      3  N   GLN A   1      42.319  11.917  37.863  0.00  0.00    -0.239 NA
ATOM      4  H   GLN A   1      42.138  11.325  38.699  0.00  0.00    +0.142 HD
ENDBRANCH   2   3
BRANCH   2   5
ATOM      5  C   GLN A   1      42.882  10.036  36.498  0.00  0.00    +0.224 C 
ATOM      6  O   GLN A   1      42.680   9.177  37.365  0.00  0.00    -0.287 OA
ENDBRANCH   2   5
ENDBRANCH   1   2
BRANCH   1   7
ATOM      7  CG  GLN A   1      45.294  12.678  38.035  0.00  0.00    +0.087 C 
BRANCH   7   8
ATOM      8  CD  GLN A   1      45.283  13.776  37.001  0.00  0.00    +0.219 C 
ATOM      9  NE2 GLN A   1      44.889  14.974  37.409  0.00  0.00    -0.329 N 
ATOM     10 HE21 GLN A   1      44.657  15.132  38.410  0.00  0.00    +0.145 HD
ATOM     11 HE22 GLN A   1      44.812  15.756  36.728  0.00  0.00    +0.145 HD
ATOM     12  OE1 GLN A   1      45.568  13.535  35.834  0.00  0.00    -0.275 OA
ENDBRANCH   7   8
ENDBRANCH   1   7
TORSDOF 5
REMARK  Name = ../refined-set-2016/1m83/1m83_pocket.pdb
REMARK  253 active torsions:
REMARK  status: ('A' for Active; 'I' for Inactive)
REMARK    1  A    between atoms: _1  and  _3
REMARK    2  A    between atoms: _3  and  _4
REMARK    3  A    between atoms: _3  and  _6
REMARK    4  A    between atoms: _6  and  _7
REMARK    5  A    between atoms: _9  and  _11
REMARK    6  A    between atoms: _11  and  _12
REMARK    7  A    between atoms: _14  and  _16
REMARK    8  A    between atoms: _16  and  _17
REMARK    9  A    between atoms: _16  and  _19
REMARK   10  A    between atoms: _19  and  _20
REMARK   11  A    between atoms: _23  and  _25
REMARK   12  A    between atoms: _25  and  _26
REMARK   13  A    between atoms: _25  and  _28
REMARK   14  A    between atoms: _28  and  _29
REMARK   15  A    between atoms: _29  and  _30
REMARK   16  A    between atoms: _36  and  _37
REMARK   17  A    between atoms: _42  and  _44
REMARK   18  A    between atoms: _44  and  _45
REMARK   19  A    between atoms: _44  and  _47
REMARK   20  A    between atoms: _47  and  _48
REMARK   21  A    between atoms: _50  and  _52
REMARK   22  A    between atoms: _52  and  _53
REMARK   23  A    between atoms: _55  and  _57
REMARK   24  A    between atoms: _57  and  _58
REMARK   25  A    between atoms: _57  and  _60
REMARK   26  A    between atoms: _63  and  _65
REMARK   27  A    between atoms: _65  and  _66
REMARK   28  A    between atoms: _65  and  _68
REMARK   29  A    between atoms: _68  and  _69
REMARK   30  A    between atoms: _72  and  _74
REMARK   31  A    between atoms: _74  and  _75
REMARK   32  A    between atoms: _74  and  _77
REMARK   33  A    between atoms: _77  and  _78
REMARK   34  A    between atoms: _81  and  _83
REMARK   35  A    between atoms: _83  and  _84
REMARK   36  A    between atoms: _83  and  _86
REMARK   37  A    between atoms: _86  and  _87
REMARK   38  A    between atoms: _90  and  _92
REMARK   39  A    between atoms: _92  and  _93
REMARK   40  A    between atoms: _95  and  _97
REMARK   41  A    between atoms: _97  and  _98
REMARK   42  A    between atoms: _97  and  _100
REMARK   43  A    between atoms: _100  and  _101
REMARK   44  A    between atoms: _106  and  _108
REMARK   45  A    between atoms: _108  and  _109
REMARK   46  A    between atoms: _108  and  _111
REMARK   47  A    between atoms: _111  and  _112
REMARK   48  A    between atoms: _117  and  _118
REMARK   49  A    between atoms: _120  and  _122
REMARK   50  A    between atoms: _122  and  _123
REMARK   51  A    between atoms: _122  and  _125
REMARK   52  A    between atoms: _125  and  _126
REMARK   53  A    between atoms: _129  and  _131
REMARK   54  A    between atoms: _131  and  _132
REMARK   55  A    between atoms: _134  and  _136
REMARK   56  A    between atoms: _136  and  _137
REMARK   57  A    between atoms: _140  and  _142
REMARK   58  A    between atoms: _142  and  _143
REMARK   59  A    between atoms: _142  and  _145
REMARK   60  A    between atoms: _145  and  _146
REMARK   61  A    between atoms: _149  and  _151
REMARK   62  A    between atoms: _151  and  _152
REMARK   63  A    between atoms: _151  and  _154
REMARK   64  A    between atoms: _154  and  _155
REMARK   65  A    between atoms: _155  and  _156
REMARK   66  A    between atoms: _156  and  _157
REMARK   67  A    between atoms: _166  and  _168
REMARK   68  A    between atoms: _168  and  _169
REMARK   69  A    between atoms: _168  and  _171
REMARK   70  A    between atoms: _171  and  _172
REMARK   71  A    between atoms: _172  and  _173
REMARK   72  A    between atoms: _178  and  _180
REMARK   73  A    between atoms: _180  and  _181
REMARK   74  A    between atoms: _180  and  _183
REMARK   75  A    between atoms: _183  and  _184
REMARK   76  A    between atoms: _190  and  _192
REMARK   77  A    between atoms: _192  and  _193
REMARK   78  A    between atoms: _192  and  _195
REMARK   79  A    between atoms: _197  and  _199
REMARK   80  A    between atoms: _199  and  _200
REMARK   81  A    between atoms: _199  and  _202
REMARK   82  A    between atoms: _205  and  _207
REMARK   83  A    between atoms: _207  and  _208
REMARK   84  A    between atoms: _207  and  _210
REMARK   85  A    between atoms: _210  and  _211
REMARK   86  A    between atoms: _216  and  _218
REMARK   87  A    between atoms: _218  and  _219
REMARK   88  A    between atoms: _222  and  _224
REMARK   89  A    between atoms: _224  and  _225
REMARK   90  A    between atoms: _224  and  _227
REMARK   91  A    between atoms: _227  and  _228
REMARK   92  A    between atoms: _231  and  _233
REMARK   93  A    between atoms: _233  and  _234
REMARK   94  A    between atoms: _233  and  _236
REMARK   95  A    between atoms: _239  and  _241
REMARK   96  A    between atoms: _241  and  _242
REMARK   97  A    between atoms: _241  and  _244
REMARK   98  A    between atoms: _244  and  _245
REMARK   99  A    between atoms: _245  and  _246
REMARK  100  A    between atoms: _251  and  _253
REMARK  101  A    between atoms: _253  and  _254
REMARK  102  A    between atoms: _253  and  _256
REMARK  103  A    between atoms: _256  and  _257
REMARK  104  A    between atoms: _260  and  _262
REMARK  105  A    between atoms: _262  and  _263
REMARK  106  A    between atoms: _262  and  _265
REMARK  107  A    between atoms: _265  and  _266
REMARK  108  A    between atoms: _271  and  _272
REMARK  109  A    between atoms: _274  and  _276
REMARK  110  A    between atoms: _276  and  _277
REMARK  111  A    between atoms: _276  and  _279
REMARK  112  A    between atoms: _279  and  _280
REMARK  113  A    between atoms: _280  and  _281
REMARK  114  A    between atoms: _286  and  _288
REMARK  115  A    between atoms: _288  and  _289
REMARK  116  A    between atoms: _288  and  _291
REMARK  117  A    between atoms: _291  and  _292
REMARK  118  A    between atoms: _292  and  _293
REMARK  119  A    between atoms: _293  and  _294
REMARK  120  A    between atoms: _294  and  _295
REMARK  121  A    between atoms: _299  and  _301
REMARK  122  A    between atoms: _301  and  _302
REMARK  123  A    between atoms: _301  and  _304
REMARK  124  A    between atoms: _304  and  _305
REMARK  125  A    between atoms: _310  and  _311
REMARK  126  A    between atoms: _313  and  _315
REMARK  127  A    between atoms: _315  and  _316
REMARK  128  A    between atoms: _315  and  _318
REMARK  129  A    between atoms: _318  and  _319
REMARK  130  A    between atoms: _319  and  _320
REMARK  131  A    between atoms: _322  and  _324
REMARK  132  A    between atoms: _324  and  _325
REMARK  133  A    between atoms: _324  and  _327
REMARK  134  A    between atoms: _331  and  _332
REMARK  135  A    between atoms: _337  and  _339
REMARK  136  A    between atoms: _339  and  _340
REMARK  137  A    between atoms: _339  and  _342
REMARK  138  A    between atoms: _345  and  _347
REMARK  139  A    between atoms: _347  and  _348
REMARK  140  A    between atoms: _350  and  _352
REMARK  141  A    between atoms: _352  and  _353
REMARK  142  A    between atoms: _352  and  _355
REMARK  143  A    between atoms: _355  and  _356
REMARK  144  A    between atoms: _356  and  _357
REMARK  145  A    between atoms: _360  and  _362
REMARK  146  A    between atoms: _362  and  _363
REMARK  147  A    between atoms: _362  and  _365
REMARK  148  A    between atoms: _365  and  _366
REMARK  149  A    between atoms: _369  and  _371
REMARK  150  A    between atoms: _371  and  _372
REMARK  151  A    between atoms: _371  and  _374
REMARK  152  A    between atoms: _374  and  _375
REMARK  153  A    between atoms: _375  and  _376
REMARK  154  A    between atoms: _381  and  _383
REMARK  155  A    between atoms: _383  and  _384
REMARK  156  A    between atoms: _383  and  _386
REMARK  157  A    between atoms: _386  and  _387
REMARK  158  A    between atoms: _387  and  _388
REMARK  159  A    between atoms: _388  and  _389
REMARK  160  A    between atoms: _389  and  _390
REMARK  161  A    between atoms: _394  and  _396
REMARK  162  A    between atoms: _396  and  _397
REMARK  163  A    between atoms: _396  and  _399
REMARK  164  A    between atoms: _399  and  _400
REMARK  165  A    between atoms: _405  and  _407
REMARK  166  A    between atoms: _407  and  _408
REMARK  167  A    between atoms: _407  and  _410
REMARK  168  A    between atoms: _410  and  _411
REMARK  169  A    between atoms: _414  and  _416
REMARK  170  A    between atoms: _416  and  _417
REMARK  171  A    between atoms: _416  and  _419
REMARK  172  A    between atoms: _419  and  _420
REMARK  173  A    between atoms: _420  and  _421
REMARK  174  A    between atoms: _421  and  _422
REMARK  175  A    between atoms: _431  and  _433
REMARK  176  A    between atoms: _433  and  _434
REMARK  177  A    between atoms: _433  and  _436
REMARK  178  A    between atoms: _436  and  _437
REMARK  179  A    between atoms: _441  and  _442
REMARK  180  A    between atoms: _447  and  _449
REMARK  181  A    between atoms: _449  and  _450
REMARK  182  A    between atoms: _449  and  _452
REMARK  183  A    between atoms: _455  and  _457
REMARK  184  A    between atoms: _457  and  _458
REMARK  185  A    between atoms: _460  and  _462
REMARK  186  A    between atoms: _462  and  _463
REMARK  187  A    between atoms: _466  and  _468
REMARK  188  A    between atoms: _468  and  _469
REMARK  189  A    between atoms: _468  and  _471
REMARK  190  A    between atoms: _471  and  _472
REMARK  191  A    between atoms: _472  and  _473
REMARK  192  A    between atoms: _473  and  _474
REMARK  193  A    between atoms: _483  and  _485
REMARK  194  A    between atoms: _485  and  _486
REMARK  195  A    between atoms: _485  and  _488
REMARK  196  A    between atoms: _488  and  _489
REMARK  197  A    between atoms: _492  and  _494
REMARK  198  A    between atoms: _494  and  _495
REMARK  199  A    between atoms: _494  and  _497
REMARK  200  A    between atoms: _497  and  _498
REMARK  201  A    between atoms: _498  and  _499
REMARK  202  A    between atoms: _501  and  _503
REMARK  203  A    between atoms: _503  and  _504
REMARK  204  A    between atoms: _503  and  _506
REMARK  205  A    between atoms: _506  and  _507
REMARK  206  A    between atoms: _509  and  _511
REMARK  207  A    between atoms: _511  and  _512
REMARK  208  A    between atoms: _511  and  _514
REMARK  209  A    between atoms: _514  and  _515
REMARK  210  A    between atoms: _515  and  _516
REMARK  211  A    between atoms: _516  and  _517
REMARK  212  A    between atoms: _517  and  _518
REMARK  213  A    between atoms: _522  and  _524
REMARK  214  A    between atoms: _524  and  _525
REMARK  215  A    between atoms: _524  and  _527
REMARK  216  A    between atoms: _527  and  _528
REMARK  217  A    between atoms: _528  and  _529
REMARK  218  A    between atoms: _529  and  _530
REMARK  219  A    between atoms: _530  and  _531
REMARK  220  A    between atoms: _535  and  _537
REMARK  221  A    between atoms: _537  and  _538
REMARK  222  A    between atoms: _537  and  _540
REMARK  223  A    between atoms: _540  and  _541
REMARK  224  A    between atoms: _541  and  _542
REMARK  225  A    between atoms: _544  and  _546
REMARK  226  A    between atoms: _546  and  _547
REMARK  227  A    between atoms: _546  and  _549
REMARK  228  A    between atoms: _549  and  _550
REMARK  229  A    between atoms: _552  and  _554
REMARK  230  A    between atoms: _554  and  _555
REMARK  231  A    between atoms: _554  and  _557
REMARK  232  A    between atoms: _557  and  _558
REMARK  233  A    between atoms: _558  and  _559
REMARK  234  A    between atoms: _559  and  _560
REMARK  235  A    between atoms: _560  and  _561
REMARK  236  A    between atoms: _565  and  _567
REMARK  237  A    between atoms: _567  and  _568
REMARK  238  A    between atoms: _567  and  _570
REMARK  239  A    between atoms: _570  and  _571
REMARK  240  A    between atoms: _573  and  _575
REMARK  241  A    between atoms: _575  and  _576
REMARK  242  A    between atoms: _575  and  _578
REMARK  243  A    between atoms: _578  and  _579
REMARK  244  A    between atoms: _583  and  _584
REMARK  245  A    between atoms: _589  and  _591
REMARK  246  A    between atoms: _591  and  _592
REMARK  247  A    between atoms: _591  and  _594
REMARK  248  A    between atoms: _594  and  _595
REMARK  249  A    between atoms: _600  and  _601
REMARK  250  A    between atoms: _603  and  _605
REMARK  251  A    between atoms: _605  and  _606
REMARK  252  A    between atoms: _605  and  _608
REMARK  253  A    between atoms: _608  and  _609
REMARK                            x       y       z     vdW  Elec       q    Type
REMARK                         _______ _______ _______ _____ _____    ______ ____
ROOT
ATOM      1  CA  LEU A   1      57.401  13.057  32.403  0.00  0.00    +0.133 C 
ENDROOT
BRANCH   1   2
ATOM      2  N   LEU A   1      56.746  11.931  31.746  0.00  0.00    -0.239 NA
ATOM      3  H   LEU A   1      55.929  11.473  32.198  0.00  0.00    +0.142 HD
ENDBRANCH   1   2
BRANCH   1   4
ATOM      4  C   LEU A   1      58.875  12.771  32.719  0.00  0.00    +0.224 C 
ATOM      5  O   LEU A   1      59.732  13.650  32.600  0.00  0.00    -0.287 OA
ENDBRANCH   1   4
BRANCH   1   6
ATOM      6  CB  LEU A   1      56.651  13.461  33.680  0.00  0.00    +0.025 C 
BRANCH   6   7
ATOM      7  CG  LEU A   1      57.237  14.642  34.466  0.00  0.00    +0.002 C 
ATOM      8  CD2 LEU A   1      56.197  15.209  35.457  0.00  0.00    +0.000 C 
ATOM      9  CD1 LEU A   1      57.700  15.746  33.493  0.00  0.00    +0.000 C 
ENDBRANCH   6   7
ENDBRANCH   1   6
TORSDOF 4
REMARK  Name = ../refined-set-2016/1m83/1m83_pocket.pdb
REMARK  253 active torsions:
REMARK  status: ('A' for Active; 'I' for Inactive)
REMARK    1  A    between atoms: _1  and  _3
REMARK    2  A    between atoms: _3  and  _4
REMARK    3  A    between atoms: _3  and  _6
REMARK    4  A    between atoms: _6  and  _7
REMARK    5  A    between atoms: _9  and  _11
REMARK    6  A    between atoms: _11  and  _12
REMARK    7  A    between atoms: _14  and  _16
REMARK    8  A    between atoms: _16  and  _17
REMARK    9  A    between atoms: _16  and  _19
REMARK   10  A    between atoms: _19  and  _20
REMARK   11  A    between atoms: _23  and  _25
REMARK   12  A    between atoms: _25  and  _26
REMARK   13  A    between atoms: _25  and  _28
REMARK   14  A    between atoms: _28  and  _29
REMARK   15  A    between atoms: _29  and  _30
REMARK   16  A    between atoms: _36  and  _37
REMARK   17  A    between atoms: _42  and  _44
REMARK   18  A    between atoms: _44  and  _45
REMARK   19  A    between atoms: _44  and  _47
REMARK   20  A    between atoms: _47  and  _48
REMARK   21  A    between atoms: _50  and  _52
REMARK   22  A    between atoms: _52  and  _53
REMARK   23  A    between atoms: _55  and  _57
REMARK   24  A    between atoms: _57  and  _58
REMARK   25  A    between atoms: _57  and  _60
REMARK   26  A    between atoms: _63  and  _65
REMARK   27  A    between atoms: _65  and  _66
REMARK   28  A    between atoms: _65  and  _68
REMARK   29  A    between atoms: _68  and  _69
REMARK   30  A    between atoms: _72  and  _74
REMARK   31  A    between atoms: _74  and  _75
REMARK   32  A    between atoms: _74  and  _77
REMARK   33  A    between atoms: _77  and  _78
REMARK   34  A    between atoms: _81  and  _83
REMARK   35  A    between atoms: _83  and  _84
REMARK   36  A    between atoms: _83  and  _86
REMARK   37  A    between atoms: _86  and  _87
REMARK   38  A    between atoms: _90  and  _92
REMARK   39  A    between atoms: _92  and  _93
REMARK   40  A    between atoms: _95  and  _97
REMARK   41  A    between atoms: _97  and  _98
REMARK   42  A    between atoms: _97  and  _100
REMARK   43  A    between atoms: _100  and  _101
REMARK   44  A    between atoms: _106  and  _108
REMARK   45  A    between atoms: _108  and  _109
REMARK   46  A    between atoms: _108  and  _111
REMARK   47  A    between atoms: _111  and  _112
REMARK   48  A    between atoms: _117  and  _118
REMARK   49  A    between atoms: _120  and  _122
REMARK   50  A    between atoms: _122  and  _123
REMARK   51  A    between atoms: _122  and  _125
REMARK   52  A    between atoms: _125  and  _126
REMARK   53  A    between atoms: _129  and  _131
REMARK   54  A    between atoms: _131  and  _132
REMARK   55  A    between atoms: _134  and  _136
REMARK   56  A    between atoms: _136  and  _137
REMARK   57  A    between atoms: _140  and  _142
REMARK   58  A    between atoms: _142  and  _143
REMARK   59  A    between atoms: _142  and  _145
REMARK   60  A    between atoms: _145  and  _146
REMARK   61  A    between atoms: _149  and  _151
REMARK   62  A    between atoms: _151  and  _152
REMARK   63  A    between atoms: _151  and  _154
REMARK   64  A    between atoms: _154  and  _155
REMARK   65  A    between atoms: _155  and  _156
REMARK   66  A    between atoms: _156  and  _157
REMARK   67  A    between atoms: _166  and  _168
REMARK   68  A    between atoms: _168  and  _169
REMARK   69  A    between atoms: _168  and  _171
REMARK   70  A    between atoms: _171  and  _172
REMARK   71  A    between atoms: _172  and  _173
REMARK   72  A    between atoms: _178  and  _180
REMARK   73  A    between atoms: _180  and  _181
REMARK   74  A    between atoms: _180  and  _183
REMARK   75  A    between atoms: _183  and  _184
REMARK   76  A    between atoms: _190  and  _192
REMARK   77  A    between atoms: _192  and  _193
REMARK   78  A    between atoms: _192  and  _195
REMARK   79  A    between atoms: _197  and  _199
REMARK   80  A    between atoms: _199  and  _200
REMARK   81  A    between atoms: _199  and  _202
REMARK   82  A    between atoms: _205  and  _207
REMARK   83  A    between atoms: _207  and  _208
REMARK   84  A    between atoms: _207  and  _210
REMARK   85  A    between atoms: _210  and  _211
REMARK   86  A    between atoms: _216  and  _218
REMARK   87  A    between atoms: _218  and  _219
REMARK   88  A    between atoms: _222  and  _224
REMARK   89  A    between atoms: _224  and  _225
REMARK   90  A    between atoms: _224  and  _227
REMARK   91  A    between atoms: _227  and  _228
REMARK   92  A    between atoms: _231  and  _233
REMARK   93  A    between atoms: _233  and  _234
REMARK   94  A    between atoms: _233  and  _236
REMARK   95  A    between atoms: _239  and  _241
REMARK   96  A    between atoms: _241  and  _242
REMARK   97  A    between atoms: _241  and  _244
REMARK   98  A    between atoms: _244  and  _245
REMARK   99  A    between atoms: _245  and  _246
REMARK  100  A    between atoms: _251  and  _253
REMARK  101  A    between atoms: _253  and  _254
REMARK  102  A    between atoms: _253  and  _256
REMARK  103  A    between atoms: _256  and  _257
REMARK  104  A    between atoms: _260  and  _262
REMARK  105  A    between atoms: _262  and  _263
REMARK  106  A    between atoms: _262  and  _265
REMARK  107  A    between atoms: _265  and  _266
REMARK  108  A    between atoms: _271  and  _272
REMARK  109  A    between atoms: _274  and  _276
REMARK  110  A    between atoms: _276  and  _277
REMARK  111  A    between atoms: _276  and  _279
REMARK  112  A    between atoms: _279  and  _280
REMARK  113  A    between atoms: _280  and  _281
REMARK  114  A    between atoms: _286  and  _288
REMARK  115  A    between atoms: _288  and  _289
REMARK  116  A    between atoms: _288  and  _291
REMARK  117  A    between atoms: _291  and  _292
REMARK  118  A    between atoms: _292  and  _293
REMARK  119  A    between atoms: _293  and  _294
REMARK  120  A    between atoms: _294  and  _295
REMARK  121  A    between atoms: _299  and  _301
REMARK  122  A    between atoms: _301  and  _302
REMARK  123  A    between atoms: _301  and  _304
REMARK  124  A    between atoms: _304  and  _305
REMARK  125  A    between atoms: _310  and  _311
REMARK  126  A    between atoms: _313  and  _315
REMARK  127  A    between atoms: _315  and  _316
REMARK  128  A    between atoms: _315  and  _318
REMARK  129  A    between atoms: _318  and  _319
REMARK  130  A    between atoms: _319  and  _320
REMARK  131  A    between atoms: _322  and  _324
REMARK  132  A    between atoms: _324  and  _325
REMARK  133  A    between atoms: _324  and  _327
REMARK  134  A    between atoms: _331  and  _332
REMARK  135  A    between atoms: _337  and  _339
REMARK  136  A    between atoms: _339  and  _340
REMARK  137  A    between atoms: _339  and  _342
REMARK  138  A    between atoms: _345  and  _347
REMARK  139  A    between atoms: _347  and  _348
REMARK  140  A    between atoms: _350  and  _352
REMARK  141  A    between atoms: _352  and  _353
REMARK  142  A    between atoms: _352  and  _355
REMARK  143  A    between atoms: _355  and  _356
REMARK  144  A    between atoms: _356  and  _357
REMARK  145  A    between atoms: _360  and  _362
REMARK  146  A    between atoms: _362  and  _363
REMARK  147  A    between atoms: _362  and  _365
REMARK  148  A    between atoms: _365  and  _366
REMARK  149  A    between atoms: _369  and  _371
REMARK  150  A    between atoms: _371  and  _372
REMARK  151  A    between atoms: _371  and  _374
REMARK  152  A    between atoms: _374  and  _375
REMARK  153  A    between atoms: _375  and  _376
REMARK  154  A    between atoms: _381  and  _383
REMARK  155  A    between atoms: _383  and  _384
REMARK  156  A    between atoms: _383  and  _386
REMARK  157  A    between atoms: _386  and  _387
REMARK  158  A    between atoms: _387  and  _388
REMARK  159  A    between atoms: _388  and  _389
REMARK  160  A    between atoms: _389  and  _390
REMARK  161  A    between atoms: _394  and  _396
REMARK  162  A    between atoms: _396  and  _397
REMARK  163  A    between atoms: _396  and  _399
REMARK  164  A    between atoms: _399  and  _400
REMARK  165  A    between atoms: _405  and  _407
REMARK  166  A    between atoms: _407  and  _408
REMARK  167  A    between atoms: _407  and  _410
REMARK  168  A    between atoms: _410  and  _411
REMARK  169  A    between atoms: _414  and  _416
REMARK  170  A    between atoms: _416  and  _417
REMARK  171  A    between atoms: _416  and  _419
REMARK  172  A    between atoms: _419  and  _420
REMARK  173  A    between atoms: _420  and  _421
REMARK  174  A    between atoms: _421  and  _422
REMARK  175  A    between atoms: _431  and  _433
REMARK  176  A    between atoms: _433  and  _434
REMARK  177  A    between atoms: _433  and  _436
REMARK  178  A    between atoms: _436  and  _437
REMARK  179  A    between atoms: _441  and  _442
REMARK  180  A    between atoms: _447  and  _449
REMARK  181  A    between atoms: _449  and  _450
REMARK  182  A    between atoms: _449  and  _452
REMARK  183  A    between atoms: _455  and  _457
REMARK  184  A    between atoms: _457  and  _458
REMARK  185  A    between atoms: _460  and  _462
REMARK  186  A    between atoms: _462  and  _463
REMARK  187  A    between atoms: _466  and  _468
REMARK  188  A    between atoms: _468  and  _469
REMARK  189  A    between atoms: _468  and  _471
REMARK  190  A    between atoms: _471  and  _472
REMARK  191  A    between atoms: _472  and  _473
REMARK  192  A    between atoms: _473  and  _474
REMARK  193  A    between atoms: _483  and  _485
REMARK  194  A    between atoms: _485  and  _486
REMARK  195  A    between atoms: _485  and  _488
REMARK  196  A    between atoms: _488  and  _489
REMARK  197  A    between atoms: _492  and  _494
REMARK  198  A    between atoms: _494  and  _495
REMARK  199  A    between atoms: _494  and  _497
REMARK  200  A    between atoms: _497  and  _498
REMARK  201  A    between atoms: _498  and  _499
REMARK  202  A    between atoms: _501  and  _503
REMARK  203  A    between atoms: _503  and  _504
REMARK  204  A    between atoms: _503  and  _506
REMARK  205  A    between atoms: _506  and  _507
REMARK  206  A    between atoms: _509  and  _511
REMARK  207  A    between atoms: _511  and  _512
REMARK  208  A    between atoms: _511  and  _514
REMARK  209  A    between atoms: _514  and  _515
REMARK  210  A    between atoms: _515  and  _516
REMARK  211  A    between atoms: _516  and  _517
REMARK  212  A    between atoms: _517  and  _518
REMARK  213  A    between atoms: _522  and  _524
REMARK  214  A    between atoms: _524  and  _525
REMARK  215  A    between atoms: _524  and  _527
REMARK  216  A    between atoms: _527  and  _528
REMARK  217  A    between atoms: _528  and  _529
REMARK  218  A    between atoms: _529  and  _530
REMARK  219  A    between atoms: _530  and  _531
REMARK  220  A    between atoms: _535  and  _537
REMARK  221  A    between atoms: _537  and  _538
REMARK  222  A    between atoms: _537  and  _540
REMARK  223  A    between atoms: _540  and  _541
REMARK  224  A    between atoms: _541  and  _542
REMARK  225  A    between atoms: _544  and  _546
REMARK  226  A    between atoms: _546  and  _547
REMARK  227  A    between atoms: _546  and  _549
REMARK  228  A    between atoms: _549  and  _550
REMARK  229  A    between atoms: _552  and  _554
REMARK  230  A    between atoms: _554  and  _555
REMARK  231  A    between atoms: _554  and  _557
REMARK  232  A    between atoms: _557  and  _558
REMARK  233  A    between atoms: _558  and  _559
REMARK  234  A    between atoms: _559  and  _560
REMARK  235  A    between atoms: _560  and  _561
REMARK  236  A    between atoms: _565  and  _567
REMARK  237  A    between atoms: _567  and  _568
REMARK  238  A    between atoms: _567  and  _570
REMARK  239  A    between atoms: _570  and  _571
REMARK  240  A    between atoms: _573  and  _575
REMARK  241  A    between atoms: _575  and  _576
REMARK  242  A    between atoms: _575  and  _578
REMARK  243  A    between atoms: _578  and  _579
REMARK  244  A    between atoms: _583  and  _584
REMARK  245  A    between atoms: _589  and  _591
REMARK  246  A    between atoms: _591  and  _592
REMARK  247  A    between atoms: _591  and  _594
REMARK  248  A    between atoms: _594  and  _595
REMARK  249  A    between atoms: _600  and  _601
REMARK  250  A    between atoms: _603  and  _605
REMARK  251  A    between atoms: _605  and  _606
REMARK  252  A    between atoms: _605  and  _608
REMARK  253  A    between atoms: _608  and  _609
REMARK                            x       y       z     vdW  Elec       q    Type
REMARK                         _______ _______ _______ _____ _____    ______ ____
ROOT
ATOM      1  CG  TYR A   1      62.302  15.647  34.528  0.00  0.00    -0.020 A 
ATOM      2  CD2 TYR A   1      61.132  15.214  35.119  0.00  0.00    -0.001 A 
ATOM      3  CE2 TYR A   1      60.537  15.934  36.142  0.00  0.00    +0.036 A 
ATOM      4  CZ  TYR A   1      61.135  17.082  36.611  0.00  0.00    +0.134 A 
ATOM      5  CE1 TYR A   1      62.322  17.517  36.061  0.00  0.00    +0.036 A 
ATOM      6  CD1 TYR A   1      62.913  16.780  35.042  0.00  0.00    -0.001 A 
ENDROOT
BRANCH   4   7
ATOM      7  OH  TYR A   1      60.544  17.766  37.646  0.00  0.00    -0.506 OA
ATOM      8  HH  TYR A   1      60.483  17.175  38.438  0.00  0.00    +0.292 HD
ENDBRANCH   4   7
BRANCH   1   9
ATOM      9  CB  TYR A   1      62.989  14.794  33.506  0.00  0.00    +0.051 C 
BRANCH   9  10
ATOM     10  CA  TYR A   1      63.104  15.390  32.108  0.00  0.00    +0.137 C 
BRANCH  10  11
ATOM     11  N   TYR A   1      62.142  14.733  31.232  0.00  0.00    -0.239 NA
ATOM     12  H   TYR A   1      61.505  14.007  31.618  0.00  0.00    +0.142 HD
ENDBRANCH  10  11
BRANCH  10  13
ATOM     13  C   TYR A   1      64.501  15.057  31.586  0.00  0.00    +0.224 C 
ATOM     14  O   TYR A   1      65.382  15.921  31.520  0.00  0.00    -0.287 OA
ENDBRANCH  10  13
ENDBRANCH   9  10
ENDBRANCH   1   9
TORSDOF 5
REMARK  Name = ../refined-set-2016/1m83/1m83_pocket.pdb
REMARK  253 active torsions:
REMARK  status: ('A' for Active; 'I' for Inactive)
REMARK    1  A    between atoms: _1  and  _3
REMARK    2  A    between atoms: _3  and  _4
REMARK    3  A    between atoms: _3  and  _6
REMARK    4  A    between atoms: _6  and  _7
REMARK    5  A    between atoms: _9  and  _11
REMARK    6  A    between atoms: _11  and  _12
REMARK    7  A    between atoms: _14  and  _16
REMARK    8  A    between atoms: _16  and  _17
REMARK    9  A    between atoms: _16  and  _19
REMARK   10  A    between atoms: _19  and  _20
REMARK   11  A    between atoms: _23  and  _25
REMARK   12  A    between atoms: _25  and  _26
REMARK   13  A    between atoms: _25  and  _28
REMARK   14  A    between atoms: _28  and  _29
REMARK   15  A    between atoms: _29  and  _30
REMARK   16  A    between atoms: _36  and  _37
REMARK   17  A    between atoms: _42  and  _44
REMARK   18  A    between atoms: _44  and  _45
REMARK   19  A    between atoms: _44  and  _47
REMARK   20  A    between atoms: _47  and  _48
REMARK   21  A    between atoms: _50  and  _52
REMARK   22  A    between atoms: _52  and  _53
REMARK   23  A    between atoms: _55  and  _57
REMARK   24  A    between atoms: _57  and  _58
REMARK   25  A    between atoms: _57  and  _60
REMARK   26  A    between atoms: _63  and  _65
REMARK   27  A    between atoms: _65  and  _66
REMARK   28  A    between atoms: _65  and  _68
REMARK   29  A    between atoms: _68  and  _69
REMARK   30  A    between atoms: _72  and  _74
REMARK   31  A    between atoms: _74  and  _75
REMARK   32  A    between atoms: _74  and  _77
REMARK   33  A    between atoms: _77  and  _78
REMARK   34  A    between atoms: _81  and  _83
REMARK   35  A    between atoms: _83  and  _84
REMARK   36  A    between atoms: _83  and  _86
REMARK   37  A    between atoms: _86  and  _87
REMARK   38  A    between atoms: _90  and  _92
REMARK   39  A    between atoms: _92  and  _93
REMARK   40  A    between atoms: _95  and  _97
REMARK   41  A    between atoms: _97  and  _98
REMARK   42  A    between atoms: _97  and  _100
REMARK   43  A    between atoms: _100  and  _101
REMARK   44  A    between atoms: _106  and  _108
REMARK   45  A    between atoms: _108  and  _109
REMARK   46  A    between atoms: _108  and  _111
REMARK   47  A    between atoms: _111  and  _112
REMARK   48  A    between atoms: _117  and  _118
REMARK   49  A    between atoms: _120  and  _122
REMARK   50  A    between atoms: _122  and  _123
REMARK   51  A    between atoms: _122  and  _125
REMARK   52  A    between atoms: _125  and  _126
REMARK   53  A    between atoms: _129  and  _131
REMARK   54  A    between atoms: _131  and  _132
REMARK   55  A    between atoms: _134  and  _136
REMARK   56  A    between atoms: _136  and  _137
REMARK   57  A    between atoms: _140  and  _142
REMARK   58  A    between atoms: _142  and  _143
REMARK   59  A    between atoms: _142  and  _145
REMARK   60  A    between atoms: _145  and  _146
REMARK   61  A    between atoms: _149  and  _151
REMARK   62  A    between atoms: _151  and  _152
REMARK   63  A    between atoms: _151  and  _154
REMARK   64  A    between atoms: _154  and  _155
REMARK   65  A    between atoms: _155  and  _156
REMARK   66  A    between atoms: _156  and  _157
REMARK   67  A    between atoms: _166  and  _168
REMARK   68  A    between atoms: _168  and  _169
REMARK   69  A    between atoms: _168  and  _171
REMARK   70  A    between atoms: _171  and  _172
REMARK   71  A    between atoms: _172  and  _173
REMARK   72  A    between atoms: _178  and  _180
REMARK   73  A    between atoms: _180  and  _181
REMARK   74  A    between atoms: _180  and  _183
REMARK   75  A    between atoms: _183  and  _184
REMARK   76  A    between atoms: _190  and  _192
REMARK   77  A    between atoms: _192  and  _193
REMARK   78  A    between atoms: _192  and  _195
REMARK   79  A    between atoms: _197  and  _199
REMARK   80  A    between atoms: _199  and  _200
REMARK   81  A    between atoms: _199  and  _202
REMARK   82  A    between atoms: _205  and  _207
REMARK   83  A    between atoms: _207  and  _208
REMARK   84  A    between atoms: _207  and  _210
REMARK   85  A    between atoms: _210  and  _211
REMARK   86  A    between atoms: _216  and  _218
REMARK   87  A    between atoms: _218  and  _219
REMARK   88  A    between atoms: _222  and  _224
REMARK   89  A    between atoms: _224  and  _225
REMARK   90  A    between atoms: _224  and  _227
REMARK   91  A    between atoms: _227  and  _228
REMARK   92  A    between atoms: _231  and  _233
REMARK   93  A    between atoms: _233  and  _234
REMARK   94  A    between atoms: _233  and  _236
REMARK   95  A    between atoms: _239  and  _241
REMARK   96  A    between atoms: _241  and  _242
REMARK   97  A    between atoms: _241  and  _244
REMARK   98  A    between atoms: _244  and  _245
REMARK   99  A    between atoms: _245  and  _246
REMARK  100  A    between atoms: _251  and  _253
REMARK  101  A    between atoms: _253  and  _254
REMARK  102  A    between atoms: _253  and  _256
REMARK  103  A    between atoms: _256  and  _257
REMARK  104  A    between atoms: _260  and  _262
REMARK  105  A    between atoms: _262  and  _263
REMARK  106  A    between atoms: _262  and  _265
REMARK  107  A    between atoms: _265  and  _266
REMARK  108  A    between atoms: _271  and  _272
REMARK  109  A    between atoms: _274  and  _276
REMARK  110  A    between atoms: _276  and  _277
REMARK  111  A    between atoms: _276  and  _279
REMARK  112  A    between atoms: _279  and  _280
REMARK  113  A    between atoms: _280  and  _281
REMARK  114  A    between atoms: _286  and  _288
REMARK  115  A    between atoms: _288  and  _289
REMARK  116  A    between atoms: _288  and  _291
REMARK  117  A    between atoms: _291  and  _292
REMARK  118  A    between atoms: _292  and  _293
REMARK  119  A    between atoms: _293  and  _294
REMARK  120  A    between atoms: _294  and  _295
REMARK  121  A    between atoms: _299  and  _301
REMARK  122  A    between atoms: _301  and  _302
REMARK  123  A    between atoms: _301  and  _304
REMARK  124  A    between atoms: _304  and  _305
REMARK  125  A    between atoms: _310  and  _311
REMARK  126  A    between atoms: _313  and  _315
REMARK  127  A    between atoms: _315  and  _316
REMARK  128  A    between atoms: _315  and  _318
REMARK  129  A    between atoms: _318  and  _319
REMARK  130  A    between atoms: _319  and  _320
REMARK  131  A    between atoms: _322  and  _324
REMARK  132  A    between atoms: _324  and  _325
REMARK  133  A    between atoms: _324  and  _327
REMARK  134  A    between atoms: _331  and  _332
REMARK  135  A    between atoms: _337  and  _339
REMARK  136  A    between atoms: _339  and  _340
REMARK  137  A    between atoms: _339  and  _342
REMARK  138  A    between atoms: _345  and  _347
REMARK  139  A    between atoms: _347  and  _348
REMARK  140  A    between atoms: _350  and  _352
REMARK  141  A    between atoms: _352  and  _353
REMARK  142  A    between atoms: _352  and  _355
REMARK  143  A    between atoms: _355  and  _356
REMARK  144  A    between atoms: _356  and  _357
REMARK  145  A    between atoms: _360  and  _362
REMARK  146  A    between atoms: _362  and  _363
REMARK  147  A    between atoms: _362  and  _365
REMARK  148  A    between atoms: _365  and  _366
REMARK  149  A    between atoms: _369  and  _371
REMARK  150  A    between atoms: _371  and  _372
REMARK  151  A    between atoms: _371  and  _374
REMARK  152  A    between atoms: _374  and  _375
REMARK  153  A    between atoms: _375  and  _376
REMARK  154  A    between atoms: _381  and  _383
REMARK  155  A    between atoms: _383  and  _384
REMARK  156  A    between atoms: _383  and  _386
REMARK  157  A    between atoms: _386  and  _387
REMARK  158  A    between atoms: _387  and  _388
REMARK  159  A    between atoms: _388  and  _389
REMARK  160  A    between atoms: _389  and  _390
REMARK  161  A    between atoms: _394  and  _396
REMARK  162  A    between atoms: _396  and  _397
REMARK  163  A    between atoms: _396  and  _399
REMARK  164  A    between atoms: _399  and  _400
REMARK  165  A    between atoms: _405  and  _407
REMARK  166  A    between atoms: _407  and  _408
REMARK  167  A    between atoms: _407  and  _410
REMARK  168  A    between atoms: _410  and  _411
REMARK  169  A    between atoms: _414  and  _416
REMARK  170  A    between atoms: _416  and  _417
REMARK  171  A    between atoms: _416  and  _419
REMARK  172  A    between atoms: _419  and  _420
REMARK  173  A    between atoms: _420  and  _421
REMARK  174  A    between atoms: _421  and  _422
REMARK  175  A    between atoms: _431  and  _433
REMARK  176  A    between atoms: _433  and  _434
REMARK  177  A    between atoms: _433  and  _436
REMARK  178  A    between atoms: _436  and  _437
REMARK  179  A    between atoms: _441  and  _442
REMARK  180  A    between atoms: _447  and  _449
REMARK  181  A    between atoms: _449  and  _450
REMARK  182  A    between atoms: _449  and  _452
REMARK  183  A    between atoms: _455  and  _457
REMARK  184  A    between atoms: _457  and  _458
REMARK  185  A    between atoms: _460  and  _462
REMARK  186  A    between atoms: _462  and  _463
REMARK  187  A    between atoms: _466  and  _468
REMARK  188  A    between atoms: _468  and  _469
REMARK  189  A    between atoms: _468  and  _471
REMARK  190  A    between atoms: _471  and  _472
REMARK  191  A    between atoms: _472  and  _473
REMARK  192  A    between atoms: _473  and  _474
REMARK  193  A    between atoms: _483  and  _485
REMARK  194  A    between atoms: _485  and  _486
REMARK  195  A    between atoms: _485  and  _488
REMARK  196  A    between atoms: _488  and  _489
REMARK  197  A    between atoms: _492  and  _494
REMARK  198  A    between atoms: _494  and  _495
REMARK  199  A    between atoms: _494  and  _497
REMARK  200  A    between atoms: _497  and  _498
REMARK  201  A    between atoms: _498  and  _499
REMARK  202  A    between atoms: _501  and  _503
REMARK  203  A    between atoms: _503  and  _504
REMARK  204  A    between atoms: _503  and  _506
REMARK  205  A    between atoms: _506  and  _507
REMARK  206  A    between atoms: _509  and  _511
REMARK  207  A    between atoms: _511  and  _512
REMARK  208  A    between atoms: _511  and  _514
REMARK  209  A    between atoms: _514  and  _515
REMARK  210  A    between atoms: _515  and  _516
REMARK  211  A    between atoms: _516  and  _517
REMARK  212  A    between atoms: _517  and  _518
REMARK  213  A    between atoms: _522  and  _524
REMARK  214  A    between atoms: _524  and  _525
REMARK  215  A    between atoms: _524  and  _527
REMARK  216  A    between atoms: _527  and  _528
REMARK  217  A    between atoms: _528  and  _529
REMARK  218  A    between atoms: _529  and  _530
REMARK  219  A    between atoms: _530  and  _531
REMARK  220  A    between atoms: _535  and  _537
REMARK  221  A    between atoms: _537  and  _538
REMARK  222  A    between atoms: _537  and  _540
REMARK  223  A    between atoms: _540  and  _541
REMARK  224  A    between atoms: _541  and  _542
REMARK  225  A    between atoms: _544  and  _546
REMARK  226  A    between atoms: _546  and  _547
REMARK  227  A    between atoms: _546  and  _549
REMARK  228  A    between atoms: _549  and  _550
REMARK  229  A    between atoms: _552  and  _554
REMARK  230  A    between atoms: _554  and  _555
REMARK  231  A    between atoms: _554  and  _557
REMARK  232  A    between atoms: _557  and  _558
REMARK  233  A    between atoms: _558  and  _559
REMARK  234  A    between atoms: _559  and  _560
REMARK  235  A    between atoms: _560  and  _561
REMARK  236  A    between atoms: _565  and  _567
REMARK  237  A    between atoms: _567  and  _568
REMARK  238  A    between atoms: _567  and  _570
REMARK  239  A    between atoms: _570  and  _571
REMARK  240  A    between atoms: _573  and  _575
REMARK  241  A    between atoms: _575  and  _576
REMARK  242  A    between atoms: _575  and  _578
REMARK  243  A    between atoms: _578  and  _579
REMARK  244  A    between atoms: _583  and  _584
REMARK  245  A    between atoms: _589  and  _591
REMARK  246  A    between atoms: _591  and  _592
REMARK  247  A    between atoms: _591  and  _594
REMARK  248  A    between atoms: _594  and  _595
REMARK  249  A    between atoms: _600  and  _601
REMARK  250  A    between atoms: _603  and  _605
REMARK  251  A    between atoms: _605  and  _606
REMARK  252  A    between atoms: _605  and  _608
REMARK  253  A    between atoms: _608  and  _609
REMARK                            x       y       z     vdW  Elec       q    Type
REMARK                         _______ _______ _______ _____ _____    ______ ____
ROOT
ATOM      1  CB  GLN A   1      46.664  27.645  43.051  0.00  0.00    +0.035 C 
ENDROOT
BRANCH   1   2
ATOM      2  CA  GLN A   1      45.378  28.476  42.986  0.00  0.00    +0.134 C 
BRANCH   2   3
ATOM      3  N   GLN A   1      45.458  29.684  43.801  0.00  0.00    -0.239 NA
ATOM      4  H   GLN A   1      46.246  29.809  44.469  0.00  0.00    +0.142 HD
ENDBRANCH   2   3
BRANCH   2   5
ATOM      5  C   GLN A   1      44.184  27.646  43.463  0.00  0.00    +0.224 C 
ATOM      6  O   GLN A   1      43.421  27.109  42.655  0.00  0.00    -0.287 OA
ENDBRANCH   2   5
ENDBRANCH   1   2
BRANCH   1   7
ATOM      7  CG  GLN A   1      46.674  26.485  42.042  0.00  0.00    +0.087 C 
BRANCH   7   8
ATOM      8  CD  GLN A   1      47.729  25.423  42.334  0.00  0.00    +0.219 C 
ATOM      9  NE2 GLN A   1      47.323  24.348  43.006  0.00  0.00    -0.329 N 
ATOM     10 HE21 GLN A   1      46.348  24.297  43.365  0.00  0.00    +0.145 HD
ATOM     11 HE22 GLN A   1      47.980  23.559  43.172  0.00  0.00    +0.145 HD
ATOM     12  OE1 GLN A   1      48.871  25.534  41.888  0.00  0.00    -0.275 OA
ENDBRANCH   7   8
ENDBRANCH   1   7
TORSDOF 5
REMARK  Name = ../refined-set-2016/1m83/1m83_pocket.pdb
REMARK  253 active torsions:
REMARK  status: ('A' for Active; 'I' for Inactive)
REMARK    1  A    between atoms: _1  and  _3
REMARK    2  A    between atoms: _3  and  _4
REMARK    3  A    between atoms: _3  and  _6
REMARK    4  A    between atoms: _6  and  _7
REMARK    5  A    between atoms: _9  and  _11
REMARK    6  A    between atoms: _11  and  _12
REMARK    7  A    between atoms: _14  and  _16
REMARK    8  A    between atoms: _16  and  _17
REMARK    9  A    between atoms: _16  and  _19
REMARK   10  A    between atoms: _19  and  _20
REMARK   11  A    between atoms: _23  and  _25
REMARK   12  A    between atoms: _25  and  _26
REMARK   13  A    between atoms: _25  and  _28
REMARK   14  A    between atoms: _28  and  _29
REMARK   15  A    between atoms: _29  and  _30
REMARK   16  A    between atoms: _36  and  _37
REMARK   17  A    between atoms: _42  and  _44
REMARK   18  A    between atoms: _44  and  _45
REMARK   19  A    between atoms: _44  and  _47
REMARK   20  A    between atoms: _47  and  _48
REMARK   21  A    between atoms: _50  and  _52
REMARK   22  A    between atoms: _52  and  _53
REMARK   23  A    between atoms: _55  and  _57
REMARK   24  A    between atoms: _57  and  _58
REMARK   25  A    between atoms: _57  and  _60
REMARK   26  A    between atoms: _63  and  _65
REMARK   27  A    between atoms: _65  and  _66
REMARK   28  A    between atoms: _65  and  _68
REMARK   29  A    between atoms: _68  and  _69
REMARK   30  A    between atoms: _72  and  _74
REMARK   31  A    between atoms: _74  and  _75
REMARK   32  A    between atoms: _74  and  _77
REMARK   33  A    between atoms: _77  and  _78
REMARK   34  A    between atoms: _81  and  _83
REMARK   35  A    between atoms: _83  and  _84
REMARK   36  A    between atoms: _83  and  _86
REMARK   37  A    between atoms: _86  and  _87
REMARK   38  A    between atoms: _90  and  _92
REMARK   39  A    between atoms: _92  and  _93
REMARK   40  A    between atoms: _95  and  _97
REMARK   41  A    between atoms: _97  and  _98
REMARK   42  A    between atoms: _97  and  _100
REMARK   43  A    between atoms: _100  and  _101
REMARK   44  A    between atoms: _106  and  _108
REMARK   45  A    between atoms: _108  and  _109
REMARK   46  A    between atoms: _108  and  _111
REMARK   47  A    between atoms: _111  and  _112
REMARK   48  A    between atoms: _117  and  _118
REMARK   49  A    between atoms: _120  and  _122
REMARK   50  A    between atoms: _122  and  _123
REMARK   51  A    between atoms: _122  and  _125
REMARK   52  A    between atoms: _125  and  _126
REMARK   53  A    between atoms: _129  and  _131
REMARK   54  A    between atoms: _131  and  _132
REMARK   55  A    between atoms: _134  and  _136
REMARK   56  A    between atoms: _136  and  _137
REMARK   57  A    between atoms: _140  and  _142
REMARK   58  A    between atoms: _142  and  _143
REMARK   59  A    between atoms: _142  and  _145
REMARK   60  A    between atoms: _145  and  _146
REMARK   61  A    between atoms: _149  and  _151
REMARK   62  A    between atoms: _151  and  _152
REMARK   63  A    between atoms: _151  and  _154
REMARK   64  A    between atoms: _154  and  _155
REMARK   65  A    between atoms: _155  and  _156
REMARK   66  A    between atoms: _156  and  _157
REMARK   67  A    between atoms: _166  and  _168
REMARK   68  A    between atoms: _168  and  _169
REMARK   69  A    between atoms: _168  and  _171
REMARK   70  A    between atoms: _171  and  _172
REMARK   71  A    between atoms: _172  and  _173
REMARK   72  A    between atoms: _178  and  _180
REMARK   73  A    between atoms: _180  and  _181
REMARK   74  A    between atoms: _180  and  _183
REMARK   75  A    between atoms: _183  and  _184
REMARK   76  A    between atoms: _190  and  _192
REMARK   77  A    between atoms: _192  and  _193
REMARK   78  A    between atoms: _192  and  _195
REMARK   79  A    between atoms: _197  and  _199
REMARK   80  A    between atoms: _199  and  _200
REMARK   81  A    between atoms: _199  and  _202
REMARK   82  A    between atoms: _205  and  _207
REMARK   83  A    between atoms: _207  and  _208
REMARK   84  A    between atoms: _207  and  _210
REMARK   85  A    between atoms: _210  and  _211
REMARK   86  A    between atoms: _216  and  _218
REMARK   87  A    between atoms: _218  and  _219
REMARK   88  A    between atoms: _222  and  _224
REMARK   89  A    between atoms: _224  and  _225
REMARK   90  A    between atoms: _224  and  _227
REMARK   91  A    between atoms: _227  and  _228
REMARK   92  A    between atoms: _231  and  _233
REMARK   93  A    between atoms: _233  and  _234
REMARK   94  A    between atoms: _233  and  _236
REMARK   95  A    between atoms: _239  and  _241
REMARK   96  A    between atoms: _241  and  _242
REMARK   97  A    between atoms: _241  and  _244
REMARK   98  A    between atoms: _244  and  _245
REMARK   99  A    between atoms: _245  and  _246
REMARK  100  A    between atoms: _251  and  _253
REMARK  101  A    between atoms: _253  and  _254
REMARK  102  A    between atoms: _253  and  _256
REMARK  103  A    between atoms: _256  and  _257
REMARK  104  A    between atoms: _260  and  _262
REMARK  105  A    between atoms: _262  and  _263
REMARK  106  A    between atoms: _262  and  _265
REMARK  107  A    between atoms: _265  and  _266
REMARK  108  A    between atoms: _271  and  _272
REMARK  109  A    between atoms: _274  and  _276
REMARK  110  A    between atoms: _276  and  _277
REMARK  111  A    between atoms: _276  and  _279
REMARK  112  A    between atoms: _279  and  _280
REMARK  113  A    between atoms: _280  and  _281
REMARK  114  A    between atoms: _286  and  _288
REMARK  115  A    between atoms: _288  and  _289
REMARK  116  A    between atoms: _288  and  _291
REMARK  117  A    between atoms: _291  and  _292
REMARK  118  A    between atoms: _292  and  _293
REMARK  119  A    between atoms: _293  and  _294
REMARK  120  A    between atoms: _294  and  _295
REMARK  121  A    between atoms: _299  and  _301
REMARK  122  A    between atoms: _301  and  _302
REMARK  123  A    between atoms: _301  and  _304
REMARK  124  A    between atoms: _304  and  _305
REMARK  125  A    between atoms: _310  and  _311
REMARK  126  A    between atoms: _313  and  _315
REMARK  127  A    between atoms: _315  and  _316
REMARK  128  A    between atoms: _315  and  _318
REMARK  129  A    between atoms: _318  and  _319
REMARK  130  A    between atoms: _319  and  _320
REMARK  131  A    between atoms: _322  and  _324
REMARK  132  A    between atoms: _324  and  _325
REMARK  133  A    between atoms: _324  and  _327
REMARK  134  A    between atoms: _331  and  _332
REMARK  135  A    between atoms: _337  and  _339
REMARK  136  A    between atoms: _339  and  _340
REMARK  137  A    between atoms: _339  and  _342
REMARK  138  A    between atoms: _345  and  _347
REMARK  139  A    between atoms: _347  and  _348
REMARK  140  A    between atoms: _350  and  _352
REMARK  141  A    between atoms: _352  and  _353
REMARK  142  A    between atoms: _352  and  _355
REMARK  143  A    between atoms: _355  and  _356
REMARK  144  A    between atoms: _356  and  _357
REMARK  145  A    between atoms: _360  and  _362
REMARK  146  A    between atoms: _362  and  _363
REMARK  147  A    between atoms: _362  and  _365
REMARK  148  A    between atoms: _365  and  _366
REMARK  149  A    between atoms: _369  and  _371
REMARK  150  A    between atoms: _371  and  _372
REMARK  151  A    between atoms: _371  and  _374
REMARK  152  A    between atoms: _374  and  _375
REMARK  153  A    between atoms: _375  and  _376
REMARK  154  A    between atoms: _381  and  _383
REMARK  155  A    between atoms: _383  and  _384
REMARK  156  A    between atoms: _383  and  _386
REMARK  157  A    between atoms: _386  and  _387
REMARK  158  A    between atoms: _387  and  _388
REMARK  159  A    between atoms: _388  and  _389
REMARK  160  A    between atoms: _389  and  _390
REMARK  161  A    between atoms: _394  and  _396
REMARK  162  A    between atoms: _396  and  _397
REMARK  163  A    between atoms: _396  and  _399
REMARK  164  A    between atoms: _399  and  _400
REMARK  165  A    between atoms: _405  and  _407
REMARK  166  A    between atoms: _407  and  _408
REMARK  167  A    between atoms: _407  and  _410
REMARK  168  A    between atoms: _410  and  _411
REMARK  169  A    between atoms: _414  and  _416
REMARK  170  A    between atoms: _416  and  _417
REMARK  171  A    between atoms: _416  and  _419
REMARK  172  A    between atoms: _419  and  _420
REMARK  173  A    between atoms: _420  and  _421
REMARK  174  A    between atoms: _421  and  _422
REMARK  175  A    between atoms: _431  and  _433
REMARK  176  A    between atoms: _433  and  _434
REMARK  177  A    between atoms: _433  and  _436
REMARK  178  A    between atoms: _436  and  _437
REMARK  179  A    between atoms: _441  and  _442
REMARK  180  A    between atoms: _447  and  _449
REMARK  181  A    between atoms: _449  and  _450
REMARK  182  A    between atoms: _449  and  _452
REMARK  183  A    between atoms: _455  and  _457
REMARK  184  A    between atoms: _457  and  _458
REMARK  185  A    between atoms: _460  and  _462
REMARK  186  A    between atoms: _462  and  _463
REMARK  187  A    between atoms: _466  and  _468
REMARK  188  A    between atoms: _468  and  _469
REMARK  189  A    between atoms: _468  and  _471
REMARK  190  A    between atoms: _471  and  _472
REMARK  191  A    between atoms: _472  and  _473
REMARK  192  A    between atoms: _473  and  _474
REMARK  193  A    between atoms: _483  and  _485
REMARK  194  A    between atoms: _485  and  _486
REMARK  195  A    between atoms: _485  and  _488
REMARK  196  A    between atoms: _488  and  _489
REMARK  197  A    between atoms: _492  and  _494
REMARK  198  A    between atoms: _494  and  _495
REMARK  199  A    between atoms: _494  and  _497
REMARK  200  A    between atoms: _497  and  _498
REMARK  201  A    between atoms: _498  and  _499
REMARK  202  A    between atoms: _501  and  _503
REMARK  203  A    between atoms: _503  and  _504
REMARK  204  A    between atoms: _503  and  _506
REMARK  205  A    between atoms: _506  and  _507
REMARK  206  A    between atoms: _509  and  _511
REMARK  207  A    between atoms: _511  and  _512
REMARK  208  A    between atoms: _511  and  _514
REMARK  209  A    between atoms: _514  and  _515
REMARK  210  A    between atoms: _515  and  _516
REMARK  211  A    between atoms: _516  and  _517
REMARK  212  A    between atoms: _517  and  _518
REMARK  213  A    between atoms: _522  and  _524
REMARK  214  A    between atoms: _524  and  _525
REMARK  215  A    between atoms: _524  and  _527
REMARK  216  A    between atoms: _527  and  _528
REMARK  217  A    between atoms: _528  and  _529
REMARK  218  A    between atoms: _529  and  _530
REMARK  219  A    between atoms: _530  and  _531
REMARK  220  A    between atoms: _535  and  _537
REMARK  221  A    between atoms: _537  and  _538
REMARK  222  A    between atoms: _537  and  _540
REMARK  223  A    between atoms: _540  and  _541
REMARK  224  A    between atoms: _541  and  _542
REMARK  225  A    between atoms: _544  and  _546
REMARK  226  A    between atoms: _546  and  _547
REMARK  227  A    between atoms: _546  and  _549
REMARK  228  A    between atoms: _549  and  _550
REMARK  229  A    between atoms: _552  and  _554
REMARK  230  A    between atoms: _554  and  _555
REMARK  231  A    between atoms: _554  and  _557
REMARK  232  A    between atoms: _557  and  _558
REMARK  233  A    between atoms: _558  and  _559
REMARK  234  A    between atoms: _559  and  _560
REMARK  235  A    between atoms: _560  and  _561
REMARK  236  A    between atoms: _565  and  _567
REMARK  237  A    between atoms: _567  and  _568
REMARK  238  A    between atoms: _567  and  _570
REMARK  239  A    between atoms: _570  and  _571
REMARK  240  A    between atoms: _573  and  _575
REMARK  241  A    between atoms: _575  and  _576
REMARK  242  A    between atoms: _575  and  _578
REMARK  243  A    between atoms: _578  and  _579
REMARK  244  A    between atoms: _583  and  _584
REMARK  245  A    between atoms: _589  and  _591
REMARK  246  A    between atoms: _591  and  _592
REMARK  247  A    between atoms: _591  and  _594
REMARK  248  A    between atoms: _594  and  _595
REMARK  249  A    between atoms: _600  and  _601
REMARK  250  A    between atoms: _603  and  _605
REMARK  251  A    between atoms: _605  and  _606
REMARK  252  A    between atoms: _605  and  _608
REMARK  253  A    between atoms: _608  and  _609
REMARK                            x       y       z     vdW  Elec       q    Type
REMARK                         _______ _______ _______ _____ _____    ______ ____
ROOT
ATOM      1  CG  LYS A   1      43.289  24.621  39.971  0.00  0.00    -0.000 C 
ENDROOT
BRANCH   1   2
ATOM      2  CB  LYS A   1      42.081  24.602  40.903  0.00  0.00    +0.025 C 
BRANCH   2   3
ATOM      3  CA  LYS A   1      40.955  25.550  40.487  0.00  0.00    +0.133 C 
BRANCH   3   4
ATOM      4  N   LYS A   1      41.281  26.935  40.827  0.00  0.00    -0.239 NA
ATOM      5  H   LYS A   1      42.131  27.129  41.394  0.00  0.00    +0.142 HD
ENDBRANCH   3   4
BRANCH   3   6
ATOM      6  C   LYS A   1      39.632  25.109  41.106  0.00  0.00    +0.224 C 
ATOM      7  O   LYS A   1      38.946  24.236  40.575  0.00  0.00    -0.287 OA
ENDBRANCH   3   6
ENDBRANCH   2   3
ENDBRANCH   1   2
BRANCH   1   8
ATOM      8  CD  LYS A   1      44.542  24.099  40.662  0.00  0.00    -0.024 C 
BRANCH   8   9
ATOM      9  CE  LYS A   1      45.718  24.012  39.693  0.00  0.00    -0.086 C 
BRANCH   9  10
ATOM     10  NZ  LYS A   1      45.714  22.749  38.891  0.00  0.00    +0.380 N 
ATOM     11  HZ1 LYS A   1      45.768  21.932  39.533  0.00  0.00    -0.089 HD
ATOM     12  HZ2 LYS A   1      44.837  22.696  38.334  0.00  0.00    -0.089 HD
ATOM     13  HZ3 LYS A   1      46.534  22.744  38.251  0.00  0.00    -0.089 HD
ENDBRANCH   9  10
ENDBRANCH   8   9
ENDBRANCH   1   8
TORSDOF 7
REMARK  Name = ../refined-set-2016/1m83/1m83_pocket.pdb
REMARK  253 active torsions:
REMARK  status: ('A' for Active; 'I' for Inactive)
REMARK    1  A    between atoms: _1  and  _3
REMARK    2  A    between atoms: _3  and  _4
REMARK    3  A    between atoms: _3  and  _6
REMARK    4  A    between atoms: _6  and  _7
REMARK    5  A    between atoms: _9  and  _11
REMARK    6  A    between atoms: _11  and  _12
REMARK    7  A    between atoms: _14  and  _16
REMARK    8  A    between atoms: _16  and  _17
REMARK    9  A    between atoms: _16  and  _19
REMARK   10  A    between atoms: _19  and  _20
REMARK   11  A    between atoms: _23  and  _25
REMARK   12  A    between atoms: _25  and  _26
REMARK   13  A    between atoms: _25  and  _28
REMARK   14  A    between atoms: _28  and  _29
REMARK   15  A    between atoms: _29  and  _30
REMARK   16  A    between atoms: _36  and  _37
REMARK   17  A    between atoms: _42  and  _44
REMARK   18  A    between atoms: _44  and  _45
REMARK   19  A    between atoms: _44  and  _47
REMARK   20  A    between atoms: _47  and  _48
REMARK   21  A    between atoms: _50  and  _52
REMARK   22  A    between atoms: _52  and  _53
REMARK   23  A    between atoms: _55  and  _57
REMARK   24  A    between atoms: _57  and  _58
REMARK   25  A    between atoms: _57  and  _60
REMARK   26  A    between atoms: _63  and  _65
REMARK   27  A    between atoms: _65  and  _66
REMARK   28  A    between atoms: _65  and  _68
REMARK   29  A    between atoms: _68  and  _69
REMARK   30  A    between atoms: _72  and  _74
REMARK   31  A    between atoms: _74  and  _75
REMARK   32  A    between atoms: _74  and  _77
REMARK   33  A    between atoms: _77  and  _78
REMARK   34  A    between atoms: _81  and  _83
REMARK   35  A    between atoms: _83  and  _84
REMARK   36  A    between atoms: _83  and  _86
REMARK   37  A    between atoms: _86  and  _87
REMARK   38  A    between atoms: _90  and  _92
REMARK   39  A    between atoms: _92  and  _93
REMARK   40  A    between atoms: _95  and  _97
REMARK   41  A    between atoms: _97  and  _98
REMARK   42  A    between atoms: _97  and  _100
REMARK   43  A    between atoms: _100  and  _101
REMARK   44  A    between atoms: _106  and  _108
REMARK   45  A    between atoms: _108  and  _109
REMARK   46  A    between atoms: _108  and  _111
REMARK   47  A    between atoms: _111  and  _112
REMARK   48  A    between atoms: _117  and  _118
REMARK   49  A    between atoms: _120  and  _122
REMARK   50  A    between atoms: _122  and  _123
REMARK   51  A    between atoms: _122  and  _125
REMARK   52  A    between atoms: _125  and  _126
REMARK   53  A    between atoms: _129  and  _131
REMARK   54  A    between atoms: _131  and  _132
REMARK   55  A    between atoms: _134  and  _136
REMARK   56  A    between atoms: _136  and  _137
REMARK   57  A    between atoms: _140  and  _142
REMARK   58  A    between atoms: _142  and  _143
REMARK   59  A    between atoms: _142  and  _145
REMARK   60  A    between atoms: _145  and  _146
REMARK   61  A    between atoms: _149  and  _151
REMARK   62  A    between atoms: _151  and  _152
REMARK   63  A    between atoms: _151  and  _154
REMARK   64  A    between atoms: _154  and  _155
REMARK   65  A    between atoms: _155  and  _156
REMARK   66  A    between atoms: _156  and  _157
REMARK   67  A    between atoms: _166  and  _168
REMARK   68  A    between atoms: _168  and  _169
REMARK   69  A    between atoms: _168  and  _171
REMARK   70  A    between atoms: _171  and  _172
REMARK   71  A    between atoms: _172  and  _173
REMARK   72  A    between atoms: _178  and  _180
REMARK   73  A    between atoms: _180  and  _181
REMARK   74  A    between atoms: _180  and  _183
REMARK   75  A    between atoms: _183  and  _184
REMARK   76  A    between atoms: _190  and  _192
REMARK   77  A    between atoms: _192  and  _193
REMARK   78  A    between atoms: _192  and  _195
REMARK   79  A    between atoms: _197  and  _199
REMARK   80  A    between atoms: _199  and  _200
REMARK   81  A    between atoms: _199  and  _202
REMARK   82  A    between atoms: _205  and  _207
REMARK   83  A    between atoms: _207  and  _208
REMARK   84  A    between atoms: _207  and  _210
REMARK   85  A    between atoms: _210  and  _211
REMARK   86  A    between atoms: _216  and  _218
REMARK   87  A    between atoms: _218  and  _219
REMARK   88  A    between atoms: _222  and  _224
REMARK   89  A    between atoms: _224  and  _225
REMARK   90  A    between atoms: _224  and  _227
REMARK   91  A    between atoms: _227  and  _228
REMARK   92  A    between atoms: _231  and  _233
REMARK   93  A    between atoms: _233  and  _234
REMARK   94  A    between atoms: _233  and  _236
REMARK   95  A    between atoms: _239  and  _241
REMARK   96  A    between atoms: _241  and  _242
REMARK   97  A    between atoms: _241  and  _244
REMARK   98  A    between atoms: _244  and  _245
REMARK   99  A    between atoms: _245  and  _246
REMARK  100  A    between atoms: _251  and  _253
REMARK  101  A    between atoms: _253  and  _254
REMARK  102  A    between atoms: _253  and  _256
REMARK  103  A    between atoms: _256  and  _257
REMARK  104  A    between atoms: _260  and  _262
REMARK  105  A    between atoms: _262  and  _263
REMARK  106  A    between atoms: _262  and  _265
REMARK  107  A    between atoms: _265  and  _266
REMARK  108  A    between atoms: _271  and  _272
REMARK  109  A    between atoms: _274  and  _276
REMARK  110  A    between atoms: _276  and  _277
REMARK  111  A    between atoms: _276  and  _279
REMARK  112  A    between atoms: _279  and  _280
REMARK  113  A    between atoms: _280  and  _281
REMARK  114  A    between atoms: _286  and  _288
REMARK  115  A    between atoms: _288  and  _289
REMARK  116  A    between atoms: _288  and  _291
REMARK  117  A    between atoms: _291  and  _292
REMARK  118  A    between atoms: _292  and  _293
REMARK  119  A    between atoms: _293  and  _294
REMARK  120  A    between atoms: _294  and  _295
REMARK  121  A    between atoms: _299  and  _301
REMARK  122  A    between atoms: _301  and  _302
REMARK  123  A    between atoms: _301  and  _304
REMARK  124  A    between atoms: _304  and  _305
REMARK  125  A    between atoms: _310  and  _311
REMARK  126  A    between atoms: _313  and  _315
REMARK  127  A    between atoms: _315  and  _316
REMARK  128  A    between atoms: _315  and  _318
REMARK  129  A    between atoms: _318  and  _319
REMARK  130  A    between atoms: _319  and  _320
REMARK  131  A    between atoms: _322  and  _324
REMARK  132  A    between atoms: _324  and  _325
REMARK  133  A    between atoms: _324  and  _327
REMARK  134  A    between atoms: _331  and  _332
REMARK  135  A    between atoms: _337  and  _339
REMARK  136  A    between atoms: _339  and  _340
REMARK  137  A    between atoms: _339  and  _342
REMARK  138  A    between atoms: _345  and  _347
REMARK  139  A    between atoms: _347  and  _348
REMARK  140  A    between atoms: _350  and  _352
REMARK  141  A    between atoms: _352  and  _353
REMARK  142  A    between atoms: _352  and  _355
REMARK  143  A    between atoms: _355  and  _356
REMARK  144  A    between atoms: _356  and  _357
REMARK  145  A    between atoms: _360  and  _362
REMARK  146  A    between atoms: _362  and  _363
REMARK  147  A    between atoms: _362  and  _365
REMARK  148  A    between atoms: _365  and  _366
REMARK  149  A    between atoms: _369  and  _371
REMARK  150  A    between atoms: _371  and  _372
REMARK  151  A    between atoms: _371  and  _374
REMARK  152  A    between atoms: _374  and  _375
REMARK  153  A    between atoms: _375  and  _376
REMARK  154  A    between atoms: _381  and  _383
REMARK  155  A    between atoms: _383  and  _384
REMARK  156  A    between atoms: _383  and  _386
REMARK  157  A    between atoms: _386  and  _387
REMARK  158  A    between atoms: _387  and  _388
REMARK  159  A    between atoms: _388  and  _389
REMARK  160  A    between atoms: _389  and  _390
REMARK  161  A    between atoms: _394  and  _396
REMARK  162  A    between atoms: _396  and  _397
REMARK  163  A    between atoms: _396  and  _399
REMARK  164  A    between atoms: _399  and  _400
REMARK  165  A    between atoms: _405  and  _407
REMARK  166  A    between atoms: _407  and  _408
REMARK  167  A    between atoms: _407  and  _410
REMARK  168  A    between atoms: _410  and  _411
REMARK  169  A    between atoms: _414  and  _416
REMARK  170  A    between atoms: _416  and  _417
REMARK  171  A    between atoms: _416  and  _419
REMARK  172  A    between atoms: _419  and  _420
REMARK  173  A    between atoms: _420  and  _421
REMARK  174  A    between atoms: _421  and  _422
REMARK  175  A    between atoms: _431  and  _433
REMARK  176  A    between atoms: _433  and  _434
REMARK  177  A    between atoms: _433  and  _436
REMARK  178  A    between atoms: _436  and  _437
REMARK  179  A    between atoms: _441  and  _442
REMARK  180  A    between atoms: _447  and  _449
REMARK  181  A    between atoms: _449  and  _450
REMARK  182  A    between atoms: _449  and  _452
REMARK  183  A    between atoms: _455  and  _457
REMARK  184  A    between atoms: _457  and  _458
REMARK  185  A    between atoms: _460  and  _462
REMARK  186  A    between atoms: _462  and  _463
REMARK  187  A    between atoms: _466  and  _468
REMARK  188  A    between atoms: _468  and  _469
REMARK  189  A    between atoms: _468  and  _471
REMARK  190  A    between atoms: _471  and  _472
REMARK  191  A    between atoms: _472  and  _473
REMARK  192  A    between atoms: _473  and  _474
REMARK  193  A    between atoms: _483  and  _485
REMARK  194  A    between atoms: _485  and  _486
REMARK  195  A    between atoms: _485  and  _488
REMARK  196  A    between atoms: _488  and  _489
REMARK  197  A    between atoms: _492  and  _494
REMARK  198  A    between atoms: _494  and  _495
REMARK  199  A    between atoms: _494  and  _497
REMARK  200  A    between atoms: _497  and  _498
REMARK  201  A    between atoms: _498  and  _499
REMARK  202  A    between atoms: _501  and  _503
REMARK  203  A    between atoms: _503  and  _504
REMARK  204  A    between atoms: _503  and  _506
REMARK  205  A    between atoms: _506  and  _507
REMARK  206  A    between atoms: _509  and  _511
REMARK  207  A    between atoms: _511  and  _512
REMARK  208  A    between atoms: _511  and  _514
REMARK  209  A    between atoms: _514  and  _515
REMARK  210  A    between atoms: _515  and  _516
REMARK  211  A    between atoms: _516  and  _517
REMARK  212  A    between atoms: _517  and  _518
REMARK  213  A    between atoms: _522  and  _524
REMARK  214  A    between atoms: _524  and  _525
REMARK  215  A    between atoms: _524  and  _527
REMARK  216  A    between atoms: _527  and  _528
REMARK  217  A    between atoms: _528  and  _529
REMARK  218  A    between atoms: _529  and  _530
REMARK  219  A    between atoms: _530  and  _531
REMARK  220  A    between atoms: _535  and  _537
REMARK  221  A    between atoms: _537  and  _538
REMARK  222  A    between atoms: _537  and  _540
REMARK  223  A    between atoms: _540  and  _541
REMARK  224  A    between atoms: _541  and  _542
REMARK  225  A    between atoms: _544  and  _546
REMARK  226  A    between atoms: _546  and  _547
REMARK  227  A    between atoms: _546  and  _549
REMARK  228  A    between atoms: _549  and  _550
REMARK  229  A    between atoms: _552  and  _554
REMARK  230  A    between atoms: _554  and  _555
REMARK  231  A    between atoms: _554  and  _557
REMARK  232  A    between atoms: _557  and  _558
REMARK  233  A    between atoms: _558  and  _559
REMARK  234  A    between atoms: _559  and  _560
REMARK  235  A    between atoms: _560  and  _561
REMARK  236  A    between atoms: _565  and  _567
REMARK  237  A    between atoms: _567  and  _568
REMARK  238  A    between atoms: _567  and  _570
REMARK  239  A    between atoms: _570  and  _571
REMARK  240  A    between atoms: _573  and  _575
REMARK  241  A    between atoms: _575  and  _576
REMARK  242  A    between atoms: _575  and  _578
REMARK  243  A    between atoms: _578  and  _579
REMARK  244  A    between atoms: _583  and  _584
REMARK  245  A    between atoms: _589  and  _591
REMARK  246  A    between atoms: _591  and  _592
REMARK  247  A    between atoms: _591  and  _594
REMARK  248  A    between atoms: _594  and  _595
REMARK  249  A    between atoms: _600  and  _601
REMARK  250  A    between atoms: _603  and  _605
REMARK  251  A    between atoms: _605  and  _606
REMARK  252  A    between atoms: _605  and  _608
REMARK  253  A    between atoms: _608  and  _609
REMARK                            x       y       z     vdW  Elec       q    Type
REMARK                         _______ _______ _______ _____ _____    ______ ____
ROOT
ATOM      1  CG  TYR A   1      48.284  21.686  45.677  0.00  0.00    -0.020 A 
ATOM      2  CD2 TYR A   1      49.478  22.389  45.603  0.00  0.00    -0.001 A 
ATOM      3  CE2 TYR A   1      50.282  22.317  44.467  0.00  0.00    +0.036 A 
ATOM      4  CZ  TYR A   1      49.865  21.561  43.380  0.00  0.00    +0.134 A 
ATOM      5  CE1 TYR A   1      48.666  20.882  43.420  0.00  0.00    +0.036 A 
ATOM      6  CD1 TYR A   1      47.885  20.945  44.558  0.00  0.00    -0.001 A 
ENDROOT
BRANCH   4   7
ATOM      7  OH  TYR A   1      50.655  21.470  42.257  0.00  0.00    -0.506 OA
ATOM      8  HH  TYR A   1      50.154  21.810  41.474  0.00  0.00    +0.292 HD
ENDBRANCH   4   7
BRANCH   1   9
ATOM      9  CB  TYR A   1      47.385  21.803  46.885  0.00  0.00    +0.051 C 
BRANCH   9  10
ATOM     10  CA  TYR A   1      47.828  21.002  48.128  0.00  0.00    +0.137 C 
BRANCH  10  11
ATOM     11  N   TYR A   1      46.734  21.028  49.083  0.00  0.00    -0.239 NA
ATOM     12  H   TYR A   1      45.842  21.486  48.805  0.00  0.00    +0.142 HD
ENDBRANCH  10  11
BRANCH  10  13
ATOM     13  C   TYR A   1      49.100  21.641  48.723  0.00  0.00    +0.224 C 
ATOM     14  O   TYR A   1      50.212  21.176  48.489  0.00  0.00    -0.287 OA
ENDBRANCH  10  13
ENDBRANCH   9  10
ENDBRANCH   1   9
TORSDOF 5
REMARK  Name = ../refined-set-2016/1m83/1m83_pocket.pdb
REMARK  253 active torsions:
REMARK  status: ('A' for Active; 'I' for Inactive)
REMARK    1  A    between atoms: _1  and  _3
REMARK    2  A    between atoms: _3  and  _4
REMARK    3  A    between atoms: _3  and  _6
REMARK    4  A    between atoms: _6  and  _7
REMARK    5  A    between atoms: _9  and  _11
REMARK    6  A    between atoms: _11  and  _12
REMARK    7  A    between atoms: _14  and  _16
REMARK    8  A    between atoms: _16  and  _17
REMARK    9  A    between atoms: _16  and  _19
REMARK   10  A    between atoms: _19  and  _20
REMARK   11  A    between atoms: _23  and  _25
REMARK   12  A    between atoms: _25  and  _26
REMARK   13  A    between atoms: _25  and  _28
REMARK   14  A    between atoms: _28  and  _29
REMARK   15  A    between atoms: _29  and  _30
REMARK   16  A    between atoms: _36  and  _37
REMARK   17  A    between atoms: _42  and  _44
REMARK   18  A    between atoms: _44  and  _45
REMARK   19  A    between atoms: _44  and  _47
REMARK   20  A    between atoms: _47  and  _48
REMARK   21  A    between atoms: _50  and  _52
REMARK   22  A    between atoms: _52  and  _53
REMARK   23  A    between atoms: _55  and  _57
REMARK   24  A    between atoms: _57  and  _58
REMARK   25  A    between atoms: _57  and  _60
REMARK   26  A    between atoms: _63  and  _65
REMARK   27  A    between atoms: _65  and  _66
REMARK   28  A    between atoms: _65  and  _68
REMARK   29  A    between atoms: _68  and  _69
REMARK   30  A    between atoms: _72  and  _74
REMARK   31  A    between atoms: _74  and  _75
REMARK   32  A    between atoms: _74  and  _77
REMARK   33  A    between atoms: _77  and  _78
REMARK   34  A    between atoms: _81  and  _83
REMARK   35  A    between atoms: _83  and  _84
REMARK   36  A    between atoms: _83  and  _86
REMARK   37  A    between atoms: _86  and  _87
REMARK   38  A    between atoms: _90  and  _92
REMARK   39  A    between atoms: _92  and  _93
REMARK   40  A    between atoms: _95  and  _97
REMARK   41  A    between atoms: _97  and  _98
REMARK   42  A    between atoms: _97  and  _100
REMARK   43  A    between atoms: _100  and  _101
REMARK   44  A    between atoms: _106  and  _108
REMARK   45  A    between atoms: _108  and  _109
REMARK   46  A    between atoms: _108  and  _111
REMARK   47  A    between atoms: _111  and  _112
REMARK   48  A    between atoms: _117  and  _118
REMARK   49  A    between atoms: _120  and  _122
REMARK   50  A    between atoms: _122  and  _123
REMARK   51  A    between atoms: _122  and  _125
REMARK   52  A    between atoms: _125  and  _126
REMARK   53  A    between atoms: _129  and  _131
REMARK   54  A    between atoms: _131  and  _132
REMARK   55  A    between atoms: _134  and  _136
REMARK   56  A    between atoms: _136  and  _137
REMARK   57  A    between atoms: _140  and  _142
REMARK   58  A    between atoms: _142  and  _143
REMARK   59  A    between atoms: _142  and  _145
REMARK   60  A    between atoms: _145  and  _146
REMARK   61  A    between atoms: _149  and  _151
REMARK   62  A    between atoms: _151  and  _152
REMARK   63  A    between atoms: _151  and  _154
REMARK   64  A    between atoms: _154  and  _155
REMARK   65  A    between atoms: _155  and  _156
REMARK   66  A    between atoms: _156  and  _157
REMARK   67  A    between atoms: _166  and  _168
REMARK   68  A    between atoms: _168  and  _169
REMARK   69  A    between atoms: _168  and  _171
REMARK   70  A    between atoms: _171  and  _172
REMARK   71  A    between atoms: _172  and  _173
REMARK   72  A    between atoms: _178  and  _180
REMARK   73  A    between atoms: _180  and  _181
REMARK   74  A    between atoms: _180  and  _183
REMARK   75  A    between atoms: _183  and  _184
REMARK   76  A    between atoms: _190  and  _192
REMARK   77  A    between atoms: _192  and  _193
REMARK   78  A    between atoms: _192  and  _195
REMARK   79  A    between atoms: _197  and  _199
REMARK   80  A    between atoms: _199  and  _200
REMARK   81  A    between atoms: _199  and  _202
REMARK   82  A    between atoms: _205  and  _207
REMARK   83  A    between atoms: _207  and  _208
REMARK   84  A    between atoms: _207  and  _210
REMARK   85  A    between atoms: _210  and  _211
REMARK   86  A    between atoms: _216  and  _218
REMARK   87  A    between atoms: _218  and  _219
REMARK   88  A    between atoms: _222  and  _224
REMARK   89  A    between atoms: _224  and  _225
REMARK   90  A    between atoms: _224  and  _227
REMARK   91  A    between atoms: _227  and  _228
REMARK   92  A    between atoms: _231  and  _233
REMARK   93  A    between atoms: _233  and  _234
REMARK   94  A    between atoms: _233  and  _236
REMARK   95  A    between atoms: _239  and  _241
REMARK   96  A    between atoms: _241  and  _242
REMARK   97  A    between atoms: _241  and  _244
REMARK   98  A    between atoms: _244  and  _245
REMARK   99  A    between atoms: _245  and  _246
REMARK  100  A    between atoms: _251  and  _253
REMARK  101  A    between atoms: _253  and  _254
REMARK  102  A    between atoms: _253  and  _256
REMARK  103  A    between atoms: _256  and  _257
REMARK  104  A    between atoms: _260  and  _262
REMARK  105  A    between atoms: _262  and  _263
REMARK  106  A    between atoms: _262  and  _265
REMARK  107  A    between atoms: _265  and  _266
REMARK  108  A    between atoms: _271  and  _272
REMARK  109  A    between atoms: _274  and  _276
REMARK  110  A    between atoms: _276  and  _277
REMARK  111  A    between atoms: _276  and  _279
REMARK  112  A    between atoms: _279  and  _280
REMARK  113  A    between atoms: _280  and  _281
REMARK  114  A    between atoms: _286  and  _288
REMARK  115  A    between atoms: _288  and  _289
REMARK  116  A    between atoms: _288  and  _291
REMARK  117  A    between atoms: _291  and  _292
REMARK  118  A    between atoms: _292  and  _293
REMARK  119  A    between atoms: _293  and  _294
REMARK  120  A    between atoms: _294  and  _295
REMARK  121  A    between atoms: _299  and  _301
REMARK  122  A    between atoms: _301  and  _302
REMARK  123  A    between atoms: _301  and  _304
REMARK  124  A    between atoms: _304  and  _305
REMARK  125  A    between atoms: _310  and  _311
REMARK  126  A    between atoms: _313  and  _315
REMARK  127  A    between atoms: _315  and  _316
REMARK  128  A    between atoms: _315  and  _318
REMARK  129  A    between atoms: _318  and  _319
REMARK  130  A    between atoms: _319  and  _320
REMARK  131  A    between atoms: _322  and  _324
REMARK  132  A    between atoms: _324  and  _325
REMARK  133  A    between atoms: _324  and  _327
REMARK  134  A    between atoms: _331  and  _332
REMARK  135  A    between atoms: _337  and  _339
REMARK  136  A    between atoms: _339  and  _340
REMARK  137  A    between atoms: _339  and  _342
REMARK  138  A    between atoms: _345  and  _347
REMARK  139  A    between atoms: _347  and  _348
REMARK  140  A    between atoms: _350  and  _352
REMARK  141  A    between atoms: _352  and  _353
REMARK  142  A    between atoms: _352  and  _355
REMARK  143  A    between atoms: _355  and  _356
REMARK  144  A    between atoms: _356  and  _357
REMARK  145  A    between atoms: _360  and  _362
REMARK  146  A    between atoms: _362  and  _363
REMARK  147  A    between atoms: _362  and  _365
REMARK  148  A    between atoms: _365  and  _366
REMARK  149  A    between atoms: _369  and  _371
REMARK  150  A    between atoms: _371  and  _372
REMARK  151  A    between atoms: _371  and  _374
REMARK  152  A    between atoms: _374  and  _375
REMARK  153  A    between atoms: _375  and  _376
REMARK  154  A    between atoms: _381  and  _383
REMARK  155  A    between atoms: _383  and  _384
REMARK  156  A    between atoms: _383  and  _386
REMARK  157  A    between atoms: _386  and  _387
REMARK  158  A    between atoms: _387  and  _388
REMARK  159  A    between atoms: _388  and  _389
REMARK  160  A    between atoms: _389  and  _390
REMARK  161  A    between atoms: _394  and  _396
REMARK  162  A    between atoms: _396  and  _397
REMARK  163  A    between atoms: _396  and  _399
REMARK  164  A    between atoms: _399  and  _400
REMARK  165  A    between atoms: _405  and  _407
REMARK  166  A    between atoms: _407  and  _408
REMARK  167  A    between atoms: _407  and  _410
REMARK  168  A    between atoms: _410  and  _411
REMARK  169  A    between atoms: _414  and  _416
REMARK  170  A    between atoms: _416  and  _417
REMARK  171  A    between atoms: _416  and  _419
REMARK  172  A    between atoms: _419  and  _420
REMARK  173  A    between atoms: _420  and  _421
REMARK  174  A    between atoms: _421  and  _422
REMARK  175  A    between atoms: _431  and  _433
REMARK  176  A    between atoms: _433  and  _434
REMARK  177  A    between atoms: _433  and  _436
REMARK  178  A    between atoms: _436  and  _437
REMARK  179  A    between atoms: _441  and  _442
REMARK  180  A    between atoms: _447  and  _449
REMARK  181  A    between atoms: _449  and  _450
REMARK  182  A    between atoms: _449  and  _452
REMARK  183  A    between atoms: _455  and  _457
REMARK  184  A    between atoms: _457  and  _458
REMARK  185  A    between atoms: _460  and  _462
REMARK  186  A    between atoms: _462  and  _463
REMARK  187  A    between atoms: _466  and  _468
REMARK  188  A    between atoms: _468  and  _469
REMARK  189  A    between atoms: _468  and  _471
REMARK  190  A    between atoms: _471  and  _472
REMARK  191  A    between atoms: _472  and  _473
REMARK  192  A    between atoms: _473  and  _474
REMARK  193  A    between atoms: _483  and  _485
REMARK  194  A    between atoms: _485  and  _486
REMARK  195  A    between atoms: _485  and  _488
REMARK  196  A    between atoms: _488  and  _489
REMARK  197  A    between atoms: _492  and  _494
REMARK  198  A    between atoms: _494  and  _495
REMARK  199  A    between atoms: _494  and  _497
REMARK  200  A    between atoms: _497  and  _498
REMARK  201  A    between atoms: _498  and  _499
REMARK  202  A    between atoms: _501  and  _503
REMARK  203  A    between atoms: _503  and  _504
REMARK  204  A    between atoms: _503  and  _506
REMARK  205  A    between atoms: _506  and  _507
REMARK  206  A    between atoms: _509  and  _511
REMARK  207  A    between atoms: _511  and  _512
REMARK  208  A    between atoms: _511  and  _514
REMARK  209  A    between atoms: _514  and  _515
REMARK  210  A    between atoms: _515  and  _516
REMARK  211  A    between atoms: _516  and  _517
REMARK  212  A    between atoms: _517  and  _518
REMARK  213  A    between atoms: _522  and  _524
REMARK  214  A    between atoms: _524  and  _525
REMARK  215  A    between atoms: _524  and  _527
REMARK  216  A    between atoms: _527  and  _528
REMARK  217  A    between atoms: _528  and  _529
REMARK  218  A    between atoms: _529  and  _530
REMARK  219  A    between atoms: _530  and  _531
REMARK  220  A    between atoms: _535  and  _537
REMARK  221  A    between atoms: _537  and  _538
REMARK  222  A    between atoms: _537  and  _540
REMARK  223  A    between atoms: _540  and  _541
REMARK  224  A    between atoms: _541  and  _542
REMARK  225  A    between atoms: _544  and  _546
REMARK  226  A    between atoms: _546  and  _547
REMARK  227  A    between atoms: _546  and  _549
REMARK  228  A    between atoms: _549  and  _550
REMARK  229  A    between atoms: _552  and  _554
REMARK  230  A    between atoms: _554  and  _555
REMARK  231  A    between atoms: _554  and  _557
REMARK  232  A    between atoms: _557  and  _558
REMARK  233  A    between atoms: _558  and  _559
REMARK  234  A    between atoms: _559  and  _560
REMARK  235  A    between atoms: _560  and  _561
REMARK  236  A    between atoms: _565  and  _567
REMARK  237  A    between atoms: _567  and  _568
REMARK  238  A    between atoms: _567  and  _570
REMARK  239  A    between atoms: _570  and  _571
REMARK  240  A    between atoms: _573  and  _575
REMARK  241  A    between atoms: _575  and  _576
REMARK  242  A    between atoms: _575  and  _578
REMARK  243  A    between atoms: _578  and  _579
REMARK  244  A    between atoms: _583  and  _584
REMARK  245  A    between atoms: _589  and  _591
REMARK  246  A    between atoms: _591  and  _592
REMARK  247  A    between atoms: _591  and  _594
REMARK  248  A    between atoms: _594  and  _595
REMARK  249  A    between atoms: _600  and  _601
REMARK  250  A    between atoms: _603  and  _605
REMARK  251  A    between atoms: _605  and  _606
REMARK  252  A    between atoms: _605  and  _608
REMARK  253  A    between atoms: _608  and  _609
REMARK                            x       y       z     vdW  Elec       q    Type
REMARK                         _______ _______ _______ _____ _____    ______ ____
ROOT
ATOM      1  CA  MET A   1      54.268  21.034  48.380  0.00  0.00    +0.134 C 
ENDROOT
BRANCH   1   2
ATOM      2  N   MET A   1      53.237  20.352  49.134  0.00  0.00    -0.239 NA
ATOM      3  H   MET A   1      52.271  20.737  49.146  0.00  0.00    +0.142 HD
ENDBRANCH   1   2
BRANCH   1   4
ATOM      4  C   MET A   1      55.326  21.631  49.306  0.00  0.00    +0.224 C 
ATOM      5  O   MET A   1      56.485  21.756  48.934  0.00  0.00    -0.287 OA
ENDBRANCH   1   4
BRANCH   1   6
ATOM      6  CB  MET A   1      53.673  22.151  47.541  0.00  0.00    +0.037 C 
BRANCH   6   7
ATOM      7  CG  MET A   1      54.762  22.987  46.874  0.00  0.00    +0.059 C 
BRANCH   7   8
ATOM      8  SD  MET A   1      54.113  24.070  45.616  0.00  0.00    -0.139 S 
ATOM      9  CE  MET A   1      55.660  24.906  45.065  0.00  0.00    +0.069 C 
ENDBRANCH   7   8
ENDBRANCH   6   7
ENDBRANCH   1   6
TORSDOF 5
REMARK  Name = ../refined-set-2016/1m83/1m83_pocket.pdb
REMARK  253 active torsions:
REMARK  status: ('A' for Active; 'I' for Inactive)
REMARK    1  A    between atoms: _1  and  _3
REMARK    2  A    between atoms: _3  and  _4
REMARK    3  A    between atoms: _3  and  _6
REMARK    4  A    between atoms: _6  and  _7
REMARK    5  A    between atoms: _9  and  _11
REMARK    6  A    between atoms: _11  and  _12
REMARK    7  A    between atoms: _14  and  _16
REMARK    8  A    between atoms: _16  and  _17
REMARK    9  A    between atoms: _16  and  _19
REMARK   10  A    between atoms: _19  and  _20
REMARK   11  A    between atoms: _23  and  _25
REMARK   12  A    between atoms: _25  and  _26
REMARK   13  A    between atoms: _25  and  _28
REMARK   14  A    between atoms: _28  and  _29
REMARK   15  A    between atoms: _29  and  _30
REMARK   16  A    between atoms: _36  and  _37
REMARK   17  A    between atoms: _42  and  _44
REMARK   18  A    between atoms: _44  and  _45
REMARK   19  A    between atoms: _44  and  _47
REMARK   20  A    between atoms: _47  and  _48
REMARK   21  A    between atoms: _50  and  _52
REMARK   22  A    between atoms: _52  and  _53
REMARK   23  A    between atoms: _55  and  _57
REMARK   24  A    between atoms: _57  and  _58
REMARK   25  A    between atoms: _57  and  _60
REMARK   26  A    between atoms: _63  and  _65
REMARK   27  A    between atoms: _65  and  _66
REMARK   28  A    between atoms: _65  and  _68
REMARK   29  A    between atoms: _68  and  _69
REMARK   30  A    between atoms: _72  and  _74
REMARK   31  A    between atoms: _74  and  _75
REMARK   32  A    between atoms: _74  and  _77
REMARK   33  A    between atoms: _77  and  _78
REMARK   34  A    between atoms: _81  and  _83
REMARK   35  A    between atoms: _83  and  _84
REMARK   36  A    between atoms: _83  and  _86
REMARK   37  A    between atoms: _86  and  _87
REMARK   38  A    between atoms: _90  and  _92
REMARK   39  A    between atoms: _92  and  _93
REMARK   40  A    between atoms: _95  and  _97
REMARK   41  A    between atoms: _97  and  _98
REMARK   42  A    between atoms: _97  and  _100
REMARK   43  A    between atoms: _100  and  _101
REMARK   44  A    between atoms: _106  and  _108
REMARK   45  A    between atoms: _108  and  _109
REMARK   46  A    between atoms: _108  and  _111
REMARK   47  A    between atoms: _111  and  _112
REMARK   48  A    between atoms: _117  and  _118
REMARK   49  A    between atoms: _120  and  _122
REMARK   50  A    between atoms: _122  and  _123
REMARK   51  A    between atoms: _122  and  _125
REMARK   52  A    between atoms: _125  and  _126
REMARK   53  A    between atoms: _129  and  _131
REMARK   54  A    between atoms: _131  and  _132
REMARK   55  A    between atoms: _134  and  _136
REMARK   56  A    between atoms: _136  and  _137
REMARK   57  A    between atoms: _140  and  _142
REMARK   58  A    between atoms: _142  and  _143
REMARK   59  A    between atoms: _142  and  _145
REMARK   60  A    between atoms: _145  and  _146
REMARK   61  A    between atoms: _149  and  _151
REMARK   62  A    between atoms: _151  and  _152
REMARK   63  A    between atoms: _151  and  _154
REMARK   64  A    between atoms: _154  and  _155
REMARK   65  A    between atoms: _155  and  _156
REMARK   66  A    between atoms: _156  and  _157
REMARK   67  A    between atoms: _166  and  _168
REMARK   68  A    between atoms: _168  and  _169
REMARK   69  A    between atoms: _168  and  _171
REMARK   70  A    between atoms: _171  and  _172
REMARK   71  A    between atoms: _172  and  _173
REMARK   72  A    between atoms: _178  and  _180
REMARK   73  A    between atoms: _180  and  _181
REMARK   74  A    between atoms: _180  and  _183
REMARK   75  A    between atoms: _183  and  _184
REMARK   76  A    between atoms: _190  and  _192
REMARK   77  A    between atoms: _192  and  _193
REMARK   78  A    between atoms: _192  and  _195
REMARK   79  A    between atoms: _197  and  _199
REMARK   80  A    between atoms: _199  and  _200
REMARK   81  A    between atoms: _199  and  _202
REMARK   82  A    between atoms: _205  and  _207
REMARK   83  A    between atoms: _207  and  _208
REMARK   84  A    between atoms: _207  and  _210
REMARK   85  A    between atoms: _210  and  _211
REMARK   86  A    between atoms: _216  and  _218
REMARK   87  A    between atoms: _218  and  _219
REMARK   88  A    between atoms: _222  and  _224
REMARK   89  A    between atoms: _224  and  _225
REMARK   90  A    between atoms: _224  and  _227
REMARK   91  A    between atoms: _227  and  _228
REMARK   92  A    between atoms: _231  and  _233
REMARK   93  A    between atoms: _233  and  _234
REMARK   94  A    between atoms: _233  and  _236
REMARK   95  A    between atoms: _239  and  _241
REMARK   96  A    between atoms: _241  and  _242
REMARK   97  A    between atoms: _241  and  _244
REMARK   98  A    between atoms: _244  and  _245
REMARK   99  A    between atoms: _245  and  _246
REMARK  100  A    between atoms: _251  and  _253
REMARK  101  A    between atoms: _253  and  _254
REMARK  102  A    between atoms: _253  and  _256
REMARK  103  A    between atoms: _256  and  _257
REMARK  104  A    between atoms: _260  and  _262
REMARK  105  A    between atoms: _262  and  _263
REMARK  106  A    between atoms: _262  and  _265
REMARK  107  A    between atoms: _265  and  _266
REMARK  108  A    between atoms: _271  and  _272
REMARK  109  A    between atoms: _274  and  _276
REMARK  110  A    between atoms: _276  and  _277
REMARK  111  A    between atoms: _276  and  _279
REMARK  112  A    between atoms: _279  and  _280
REMARK  113  A    between atoms: _280  and  _281
REMARK  114  A    between atoms: _286  and  _288
REMARK  115  A    between atoms: _288  and  _289
REMARK  116  A    between atoms: _288  and  _291
REMARK  117  A    between atoms: _291  and  _292
REMARK  118  A    between atoms: _292  and  _293
REMARK  119  A    between atoms: _293  and  _294
REMARK  120  A    between atoms: _294  and  _295
REMARK  121  A    between atoms: _299  and  _301
REMARK  122  A    between atoms: _301  and  _302
REMARK  123  A    between atoms: _301  and  _304
REMARK  124  A    between atoms: _304  and  _305
REMARK  125  A    between atoms: _310  and  _311
REMARK  126  A    between atoms: _313  and  _315
REMARK  127  A    between atoms: _315  and  _316
REMARK  128  A    between atoms: _315  and  _318
REMARK  129  A    between atoms: _318  and  _319
REMARK  130  A    between atoms: _319  and  _320
REMARK  131  A    between atoms: _322  and  _324
REMARK  132  A    between atoms: _324  and  _325
REMARK  133  A    between atoms: _324  and  _327
REMARK  134  A    between atoms: _331  and  _332
REMARK  135  A    between atoms: _337  and  _339
REMARK  136  A    between atoms: _339  and  _340
REMARK  137  A    between atoms: _339  and  _342
REMARK  138  A    between atoms: _345  and  _347
REMARK  139  A    between atoms: _347  and  _348
REMARK  140  A    between atoms: _350  and  _352
REMARK  141  A    between atoms: _352  and  _353
REMARK  142  A    between atoms: _352  and  _355
REMARK  143  A    between atoms: _355  and  _356
REMARK  144  A    between atoms: _356  and  _357
REMARK  145  A    between atoms: _360  and  _362
REMARK  146  A    between atoms: _362  and  _363
REMARK  147  A    between atoms: _362  and  _365
REMARK  148  A    between atoms: _365  and  _366
REMARK  149  A    between atoms: _369  and  _371
REMARK  150  A    between atoms: _371  and  _372
REMARK  151  A    between atoms: _371  and  _374
REMARK  152  A    between atoms: _374  and  _375
REMARK  153  A    between atoms: _375  and  _376
REMARK  154  A    between atoms: _381  and  _383
REMARK  155  A    between atoms: _383  and  _384
REMARK  156  A    between atoms: _383  and  _386
REMARK  157  A    between atoms: _386  and  _387
REMARK  158  A    between atoms: _387  and  _388
REMARK  159  A    between atoms: _388  and  _389
REMARK  160  A    between atoms: _389  and  _390
REMARK  161  A    between atoms: _394  and  _396
REMARK  162  A    between atoms: _396  and  _397
REMARK  163  A    between atoms: _396  and  _399
REMARK  164  A    between atoms: _399  and  _400
REMARK  165  A    between atoms: _405  and  _407
REMARK  166  A    between atoms: _407  and  _408
REMARK  167  A    between atoms: _407  and  _410
REMARK  168  A    between atoms: _410  and  _411
REMARK  169  A    between atoms: _414  and  _416
REMARK  170  A    between atoms: _416  and  _417
REMARK  171  A    between atoms: _416  and  _419
REMARK  172  A    between atoms: _419  and  _420
REMARK  173  A    between atoms: _420  and  _421
REMARK  174  A    between atoms: _421  and  _422
REMARK  175  A    between atoms: _431  and  _433
REMARK  176  A    between atoms: _433  and  _434
REMARK  177  A    between atoms: _433  and  _436
REMARK  178  A    between atoms: _436  and  _437
REMARK  179  A    between atoms: _441  and  _442
REMARK  180  A    between atoms: _447  and  _449
REMARK  181  A    between atoms: _449  and  _450
REMARK  182  A    between atoms: _449  and  _452
REMARK  183  A    between atoms: _455  and  _457
REMARK  184  A    between atoms: _457  and  _458
REMARK  185  A    between atoms: _460  and  _462
REMARK  186  A    between atoms: _462  and  _463
REMARK  187  A    between atoms: _466  and  _468
REMARK  188  A    between atoms: _468  and  _469
REMARK  189  A    between atoms: _468  and  _471
REMARK  190  A    between atoms: _471  and  _472
REMARK  191  A    between atoms: _472  and  _473
REMARK  192  A    between atoms: _473  and  _474
REMARK  193  A    between atoms: _483  and  _485
REMARK  194  A    between atoms: _485  and  _486
REMARK  195  A    between atoms: _485  and  _488
REMARK  196  A    between atoms: _488  and  _489
REMARK  197  A    between atoms: _492  and  _494
REMARK  198  A    between atoms: _494  and  _495
REMARK  199  A    between atoms: _494  and  _497
REMARK  200  A    between atoms: _497  and  _498
REMARK  201  A    between atoms: _498  and  _499
REMARK  202  A    between atoms: _501  and  _503
REMARK  203  A    between atoms: _503  and  _504
REMARK  204  A    between atoms: _503  and  _506
REMARK  205  A    between atoms: _506  and  _507
REMARK  206  A    between atoms: _509  and  _511
REMARK  207  A    between atoms: _511  and  _512
REMARK  208  A    between atoms: _511  and  _514
REMARK  209  A    between atoms: _514  and  _515
REMARK  210  A    between atoms: _515  and  _516
REMARK  211  A    between atoms: _516  and  _517
REMARK  212  A    between atoms: _517  and  _518
REMARK  213  A    between atoms: _522  and  _524
REMARK  214  A    between atoms: _524  and  _525
REMARK  215  A    between atoms: _524  and  _527
REMARK  216  A    between atoms: _527  and  _528
REMARK  217  A    between atoms: _528  and  _529
REMARK  218  A    between atoms: _529  and  _530
REMARK  219  A    between atoms: _530  and  _531
REMARK  220  A    between atoms: _535  and  _537
REMARK  221  A    between atoms: _537  and  _538
REMARK  222  A    between atoms: _537  and  _540
REMARK  223  A    between atoms: _540  and  _541
REMARK  224  A    between atoms: _541  and  _542
REMARK  225  A    between atoms: _544  and  _546
REMARK  226  A    between atoms: _546  and  _547
REMARK  227  A    between atoms: _546  and  _549
REMARK  228  A    between atoms: _549  and  _550
REMARK  229  A    between atoms: _552  and  _554
REMARK  230  A    between atoms: _554  and  _555
REMARK  231  A    between atoms: _554  and  _557
REMARK  232  A    between atoms: _557  and  _558
REMARK  233  A    between atoms: _558  and  _559
REMARK  234  A    between atoms: _559  and  _560
REMARK  235  A    between atoms: _560  and  _561
REMARK  236  A    between atoms: _565  and  _567
REMARK  237  A    between atoms: _567  and  _568
REMARK  238  A    between atoms: _567  and  _570
REMARK  239  A    between atoms: _570  and  _571
REMARK  240  A    between atoms: _573  and  _575
REMARK  241  A    between atoms: _575  and  _576
REMARK  242  A    between atoms: _575  and  _578
REMARK  243  A    between atoms: _578  and  _579
REMARK  244  A    between atoms: _583  and  _584
REMARK  245  A    between atoms: _589  and  _591
REMARK  246  A    between atoms: _591  and  _592
REMARK  247  A    between atoms: _591  and  _594
REMARK  248  A    between atoms: _594  and  _595
REMARK  249  A    between atoms: _600  and  _601
REMARK  250  A    between atoms: _603  and  _605
REMARK  251  A    between atoms: _605  and  _606
REMARK  252  A    between atoms: _605  and  _608
REMARK  253  A    between atoms: _608  and  _609
REMARK                            x       y       z     vdW  Elec       q    Type
REMARK                         _______ _______ _______ _____ _____    ______ ____
ROOT
ATOM      1  CA  GLU A   5      55.429  32.581  38.675  0.00  0.00    +0.149 C 
ENDROOT
BRANCH   1   4
ATOM      2  C   GLY A   4      56.370  30.320  38.634  0.00  0.00    +0.243 C 
ATOM      3  O   GLY A   4      56.126  30.170  39.821  0.00  0.00    -0.273 OA
ATOM      4  N   GLU A   5      56.085  31.449  37.986  0.00  0.00    -0.297 N 
ATOM      5  H   GLU A   5      56.328  31.535  36.979  0.00  0.00    +0.150 HD
BRANCH   2   6
ATOM      6  CA  GLY A   4      57.100  29.212  37.859  0.00  0.00    +0.176 C 
BRANCH   6   9
ATOM      7  C   VAL A   3      59.497  29.344  38.460  0.00  0.00    +0.241 C 
ATOM      8  O   VAL A   3      60.538  29.967  38.365  0.00  0.00    -0.273 OA
ATOM      9  N   GLY A   4      58.437  29.727  37.761  0.00  0.00    -0.295 N 
ATOM     10  H   GLY A   4      58.591  30.484  37.065  0.00  0.00    +0.150 HD
BRANCH   7  11
ATOM     11  CA  VAL A   3      59.511  28.007  39.219  0.00  0.00    +0.149 C 
BRANCH  11  13
ATOM     12  C   PRO A   2      61.611  26.898  39.948  0.00  0.00    +0.241 C 
ATOM     13  N   VAL A   3      60.873  27.989  39.769  0.00  0.00    -0.297 N 
ATOM     14  H   VAL A   3      61.293  28.901  40.040  0.00  0.00    +0.150 HD
ATOM     15  O   PRO A   2      61.229  25.773  39.683  0.00  0.00    -0.273 OA
BRANCH  12  22
ATOM     16  C   VAL A   1      62.719  27.307  42.959  0.00  0.00    +0.241 C 
ATOM     17  O   VAL A   1      62.124  28.368  42.861  0.00  0.00    -0.273 OA
ATOM     18  N   PRO A   2      63.154  26.624  41.907  0.00  0.00    -0.272 N 
ATOM     19  CD  PRO A   2      64.219  25.609  42.014  0.00  0.00    +0.094 C 
ATOM     20  CG  PRO A   2      64.663  25.401  40.599  0.00  0.00    +0.024 C 
ATOM     21  CB  PRO A   2      64.122  26.485  39.753  0.00  0.00    +0.031 C 
ATOM     22  CA  PRO A   2      62.989  27.145  40.556  0.00  0.00    +0.152 C 
BRANCH  16  23
ATOM     23  CA  VAL A   1      63.007  26.701  44.320  0.00  0.00    +0.145 C 
BRANCH  23  24
ATOM     24  CB  VAL A   1      61.716  26.718  45.180  0.00  0.00    +0.025 C 
ATOM     25  CG2 VAL A   1      62.017  26.256  46.606  0.00  0.00    +0.002 C 
ATOM     26  CG1 VAL A   1      60.646  25.824  44.543  0.00  0.00    +0.002 C 
ENDBRANCH  23  24
BRANCH  23  27
ATOM     27  N   VAL A   1      64.114  27.407  44.960  0.00  0.00    -0.238 NA
ATOM     28  H   VAL A   1      64.029  28.428  45.141  0.00  0.00    +0.142 HD
ENDBRANCH  23  27
ENDBRANCH  16  23
ENDBRANCH  12  22
ENDBRANCH  11  13
BRANCH  11  29
ATOM     29  CB  VAL A   3      58.448  27.960  40.363  0.00  0.00    +0.027 C 
ATOM     30  CG2 VAL A   3      58.581  29.167  41.305  0.00  0.00    +0.002 C 
ATOM     31  CG1 VAL A   3      58.586  26.665  41.165  0.00  0.00    +0.002 C 
ENDBRANCH  11  29
ENDBRANCH   7  11
ENDBRANCH   6   9
ENDBRANCH   2   6
ENDBRANCH   1   4
BRANCH   1  32
ATOM     32  C   GLU A   5      54.156  32.237  39.463  0.00  0.00    +0.241 C 
ATOM     33  O   GLU A   5      53.891  32.803  40.526  0.00  0.00    -0.273 OA
ATOM     34  N   ASP A   6      53.359  31.334  38.912  0.00  0.00    -0.297 N 
ATOM     35  H   ASP A   6      53.631  30.921  37.997  0.00  0.00    +0.150 HD
BRANCH  34  36
ATOM     36  CA  ASP A   6      52.115  30.894  39.536  0.00  0.00    +0.160 C 
BRANCH  36  37
ATOM     37  C   ASP A   6      52.399  30.132  40.832  0.00  0.00    +0.241 C 
ATOM     38  O   ASP A   6      51.483  29.867  41.613  0.00  0.00    -0.273 OA
ATOM     39  N   GLN A   7      53.656  29.750  41.043  0.00  0.00    -0.297 N 
ATOM     40  H   GLN A   7      54.388  29.990  40.344  0.00  0.00    +0.150 HD
BRANCH  39  41
ATOM     41  CA  GLN A   7      54.025  28.999  42.241  0.00  0.00    +0.149 C 
BRANCH  41  42
ATOM     42  C   GLN A   7      54.605  29.872  43.354  0.00  0.00    +0.241 C 
ATOM     43  O   GLN A   7      54.933  29.385  44.434  0.00  0.00    -0.273 OA
ATOM     44  N   LYS A   8      54.721  31.160  43.088  0.00  0.00    -0.298 N 
ATOM     45  H   LYS A   8      54.416  31.518  42.160  0.00  0.00    +0.150 HD
BRANCH  44  46
ATOM     46  CA  LYS A   8      55.268  32.093  44.069  0.00  0.00    +0.137 C 
BRANCH  46  47
ATOM     47  C   LYS A   8      54.544  32.103  45.422  0.00  0.00    +0.227 C 
ATOM     48  O   LYS A   8      55.179  32.107  46.473  0.00  0.00    -0.286 OA
ENDBRANCH  46  47
BRANCH  46  49
ATOM     49  CB  LYS A   8      55.317  33.516  43.490  0.00  0.00    +0.028 C 
BRANCH  49  50
ATOM     50  CG  LYS A   8      55.838  34.564  44.465  0.00  0.00    -0.000 C 
BRANCH  50  51
ATOM     51  CD  LYS A   8      56.417  35.766  43.737  0.00  0.00    -0.024 C 
BRANCH  51  52
ATOM     52  CE  LYS A   8      55.411  36.901  43.653  0.00  0.00    -0.086 C 
BRANCH  52  53
ATOM     53  NZ  LYS A   8      54.013  36.420  43.860  0.00  0.00    +0.380 N 
ATOM     54  HZ1 LYS A   8      53.934  35.982  44.800  0.00  0.00    -0.089 HD
ATOM     55  HZ2 LYS A   8      53.358  37.225  43.795  0.00  0.00    -0.089 HD
ATOM     56  HZ3 LYS A   8      53.777  35.719  43.129  0.00  0.00    -0.089 HD
ENDBRANCH  52  53
ENDBRANCH  51  52
ENDBRANCH  50  51
ENDBRANCH  49  50
ENDBRANCH  46  49
ENDBRANCH  44  46
ENDBRANCH  41  42
BRANCH  41  57
ATOM     57  CB  GLN A   7      54.987  27.863  41.900  0.00  0.00    +0.039 C 
BRANCH  57  58
ATOM     58  CG  GLN A   7      54.320  26.664  41.232  0.00  0.00    +0.087 C 
BRANCH  58  59
ATOM     59  CD  GLN A   7      52.983  26.314  41.835  0.00  0.00    +0.219 C 
ATOM     60  OE1 GLN A   7      52.886  25.991  43.017  0.00  0.00    -0.275 OA
ATOM     61  NE2 GLN A   7      51.945  26.326  41.011  0.00  0.00    -0.329 N 
ATOM     62 HE21 GLN A   7      51.003  26.055  41.358  0.00  0.00    +0.145 HD
ATOM     63 HE22 GLN A   7      52.073  26.606  40.018  0.00  0.00    +0.145 HD
ENDBRANCH  58  59
ENDBRANCH  57  58
ENDBRANCH  41  57
ENDBRANCH  39  41
ENDBRANCH  36  37
BRANCH  36  64
ATOM     64  CB  ASP A   6      51.386  29.949  38.575  0.00  0.00    +0.143 C 
BRANCH  64  65
ATOM     65  CG  ASP A   6      52.298  28.848  38.040  0.00  0.00    +0.367 C 
ATOM     66  OD2 ASP A   6      51.997  27.657  38.266  0.00  0.00    -0.246 OA
ATOM     67  OD1 ASP A   6      53.336  29.169  37.419  0.00  0.00    -0.246 OA
ENDBRANCH  64  65
ENDBRANCH  36  64
ENDBRANCH  34  36
ENDBRANCH   1  32
BRANCH   1  68
ATOM     68  CB  GLU A   5      55.136  33.730  37.714  0.00  0.00    +0.041 C 
BRANCH  68  69
ATOM     69  CG  GLU A   5      54.288  34.851  38.331  0.00  0.00    +0.116 C 
BRANCH  69  70
ATOM     70  CD  GLU A   5      55.074  35.724  39.308  0.00  0.00    +0.365 C 
ATOM     71  OE2 GLU A   5      54.465  36.279  40.252  0.00  0.00    -0.246 OA
ATOM     72  OE1 GLU A   5      56.299  35.879  39.117  0.00  0.00    -0.246 OA
ENDBRANCH  69  70
ENDBRANCH  68  69
ENDBRANCH   1  68
TORSDOF 30
REMARK  Name = ../refined-set-2016/1m83/1m83_pocket.pdb
REMARK  253 active torsions:
REMARK  status: ('A' for Active; 'I' for Inactive)
REMARK    1  A    between atoms: _1  and  _3
REMARK    2  A    between atoms: _3  and  _4
REMARK    3  A    between atoms: _3  and  _6
REMARK    4  A    between atoms: _6  and  _7
REMARK    5  A    between atoms: _9  and  _11
REMARK    6  A    between atoms: _11  and  _12
REMARK    7  A    between atoms: _14  and  _16
REMARK    8  A    between atoms: _16  and  _17
REMARK    9  A    between atoms: _16  and  _19
REMARK   10  A    between atoms: _19  and  _20
REMARK   11  A    between atoms: _23  and  _25
REMARK   12  A    between atoms: _25  and  _26
REMARK   13  A    between atoms: _25  and  _28
REMARK   14  A    between atoms: _28  and  _29
REMARK   15  A    between atoms: _29  and  _30
REMARK   16  A    between atoms: _36  and  _37
REMARK   17  A    between atoms: _42  and  _44
REMARK   18  A    between atoms: _44  and  _45
REMARK   19  A    between atoms: _44  and  _47
REMARK   20  A    between atoms: _47  and  _48
REMARK   21  A    between atoms: _50  and  _52
REMARK   22  A    between atoms: _52  and  _53
REMARK   23  A    between atoms: _55  and  _57
REMARK   24  A    between atoms: _57  and  _58
REMARK   25  A    between atoms: _57  and  _60
REMARK   26  A    between atoms: _63  and  _65
REMARK   27  A    between atoms: _65  and  _66
REMARK   28  A    between atoms: _65  and  _68
REMARK   29  A    between atoms: _68  and  _69
REMARK   30  A    between atoms: _72  and  _74
REMARK   31  A    between atoms: _74  and  _75
REMARK   32  A    between atoms: _74  and  _77
REMARK   33  A    between atoms: _77  and  _78
REMARK   34  A    between atoms: _81  and  _83
REMARK   35  A    between atoms: _83  and  _84
REMARK   36  A    between atoms: _83  and  _86
REMARK   37  A    between atoms: _86  and  _87
REMARK   38  A    between atoms: _90  and  _92
REMARK   39  A    between atoms: _92  and  _93
REMARK   40  A    between atoms: _95  and  _97
REMARK   41  A    between atoms: _97  and  _98
REMARK   42  A    between atoms: _97  and  _100
REMARK   43  A    between atoms: _100  and  _101
REMARK   44  A    between atoms: _106  and  _108
REMARK   45  A    between atoms: _108  and  _109
REMARK   46  A    between atoms: _108  and  _111
REMARK   47  A    between atoms: _111  and  _112
REMARK   48  A    between atoms: _117  and  _118
REMARK   49  A    between atoms: _120  and  _122
REMARK   50  A    between atoms: _122  and  _123
REMARK   51  A    between atoms: _122  and  _125
REMARK   52  A    between atoms: _125  and  _126
REMARK   53  A    between atoms: _129  and  _131
REMARK   54  A    between atoms: _131  and  _132
REMARK   55  A    between atoms: _134  and  _136
REMARK   56  A    between atoms: _136  and  _137
REMARK   57  A    between atoms: _140  and  _142
REMARK   58  A    between atoms: _142  and  _143
REMARK   59  A    between atoms: _142  and  _145
REMARK   60  A    between atoms: _145  and  _146
REMARK   61  A    between atoms: _149  and  _151
REMARK   62  A    between atoms: _151  and  _152
REMARK   63  A    between atoms: _151  and  _154
REMARK   64  A    between atoms: _154  and  _155
REMARK   65  A    between atoms: _155  and  _156
REMARK   66  A    between atoms: _156  and  _157
REMARK   67  A    between atoms: _166  and  _168
REMARK   68  A    between atoms: _168  and  _169
REMARK   69  A    between atoms: _168  and  _171
REMARK   70  A    between atoms: _171  and  _172
REMARK   71  A    between atoms: _172  and  _173
REMARK   72  A    between atoms: _178  and  _180
REMARK   73  A    between atoms: _180  and  _181
REMARK   74  A    between atoms: _180  and  _183
REMARK   75  A    between atoms: _183  and  _184
REMARK   76  A    between atoms: _190  and  _192
REMARK   77  A    between atoms: _192  and  _193
REMARK   78  A    between atoms: _192  and  _195
REMARK   79  A    between atoms: _197  and  _199
REMARK   80  A    between atoms: _199  and  _200
REMARK   81  A    between atoms: _199  and  _202
REMARK   82  A    between atoms: _205  and  _207
REMARK   83  A    between atoms: _207  and  _208
REMARK   84  A    between atoms: _207  and  _210
REMARK   85  A    between atoms: _210  and  _211
REMARK   86  A    between atoms: _216  and  _218
REMARK   87  A    between atoms: _218  and  _219
REMARK   88  A    between atoms: _222  and  _224
REMARK   89  A    between atoms: _224  and  _225
REMARK   90  A    between atoms: _224  and  _227
REMARK   91  A    between atoms: _227  and  _228
REMARK   92  A    between atoms: _231  and  _233
REMARK   93  A    between atoms: _233  and  _234
REMARK   94  A    between atoms: _233  and  _236
REMARK   95  A    between atoms: _239  and  _241
REMARK   96  A    between atoms: _241  and  _242
REMARK   97  A    between atoms: _241  and  _244
REMARK   98  A    between atoms: _244  and  _245
REMARK   99  A    between atoms: _245  and  _246
REMARK  100  A    between atoms: _251  and  _253
REMARK  101  A    between atoms: _253  and  _254
REMARK  102  A    between atoms: _253  and  _256
REMARK  103  A    between atoms: _256  and  _257
REMARK  104  A    between atoms: _260  and  _262
REMARK  105  A    between atoms: _262  and  _263
REMARK  106  A    between atoms: _262  and  _265
REMARK  107  A    between atoms: _265  and  _266
REMARK  108  A    between atoms: _271  and  _272
REMARK  109  A    between atoms: _274  and  _276
REMARK  110  A    between atoms: _276  and  _277
REMARK  111  A    between atoms: _276  and  _279
REMARK  112  A    between atoms: _279  and  _280
REMARK  113  A    between atoms: _280  and  _281
REMARK  114  A    between atoms: _286  and  _288
REMARK  115  A    between atoms: _288  and  _289
REMARK  116  A    between atoms: _288  and  _291
REMARK  117  A    between atoms: _291  and  _292
REMARK  118  A    between atoms: _292  and  _293
REMARK  119  A    between atoms: _293  and  _294
REMARK  120  A    between atoms: _294  and  _295
REMARK  121  A    between atoms: _299  and  _301
REMARK  122  A    between atoms: _301  and  _302
REMARK  123  A    between atoms: _301  and  _304
REMARK  124  A    between atoms: _304  and  _305
REMARK  125  A    between atoms: _310  and  _311
REMARK  126  A    between atoms: _313  and  _315
REMARK  127  A    between atoms: _315  and  _316
REMARK  128  A    between atoms: _315  and  _318
REMARK  129  A    between atoms: _318  and  _319
REMARK  130  A    between atoms: _319  and  _320
REMARK  131  A    between atoms: _322  and  _324
REMARK  132  A    between atoms: _324  and  _325
REMARK  133  A    between atoms: _324  and  _327
REMARK  134  A    between atoms: _331  and  _332
REMARK  135  A    between atoms: _337  and  _339
REMARK  136  A    between atoms: _339  and  _340
REMARK  137  A    between atoms: _339  and  _342
REMARK  138  A    between atoms: _345  and  _347
REMARK  139  A    between atoms: _347  and  _348
REMARK  140  A    between atoms: _350  and  _352
REMARK  141  A    between atoms: _352  and  _353
REMARK  142  A    between atoms: _352  and  _355
REMARK  143  A    between atoms: _355  and  _356
REMARK  144  A    between atoms: _356  and  _357
REMARK  145  A    between atoms: _360  and  _362
REMARK  146  A    between atoms: _362  and  _363
REMARK  147  A    between atoms: _362  and  _365
REMARK  148  A    between atoms: _365  and  _366
REMARK  149  A    between atoms: _369  and  _371
REMARK  150  A    between atoms: _371  and  _372
REMARK  151  A    between atoms: _371  and  _374
REMARK  152  A    between atoms: _374  and  _375
REMARK  153  A    between atoms: _375  and  _376
REMARK  154  A    between atoms: _381  and  _383
REMARK  155  A    between atoms: _383  and  _384
REMARK  156  A    between atoms: _383  and  _386
REMARK  157  A    between atoms: _386  and  _387
REMARK  158  A    between atoms: _387  and  _388
REMARK  159  A    between atoms: _388  and  _389
REMARK  160  A    between atoms: _389  and  _390
REMARK  161  A    between atoms: _394  and  _396
REMARK  162  A    between atoms: _396  and  _397
REMARK  163  A    between atoms: _396  and  _399
REMARK  164  A    between atoms: _399  and  _400
REMARK  165  A    between atoms: _405  and  _407
REMARK  166  A    between atoms: _407  and  _408
REMARK  167  A    between atoms: _407  and  _410
REMARK  168  A    between atoms: _410  and  _411
REMARK  169  A    between atoms: _414  and  _416
REMARK  170  A    between atoms: _416  and  _417
REMARK  171  A    between atoms: _416  and  _419
REMARK  172  A    between atoms: _419  and  _420
REMARK  173  A    between atoms: _420  and  _421
REMARK  174  A    between atoms: _421  and  _422
REMARK  175  A    between atoms: _431  and  _433
REMARK  176  A    between atoms: _433  and  _434
REMARK  177  A    between atoms: _433  and  _436
REMARK  178  A    between atoms: _436  and  _437
REMARK  179  A    between atoms: _441  and  _442
REMARK  180  A    between atoms: _447  and  _449
REMARK  181  A    between atoms: _449  and  _450
REMARK  182  A    between atoms: _449  and  _452
REMARK  183  A    between atoms: _455  and  _457
REMARK  184  A    between atoms: _457  and  _458
REMARK  185  A    between atoms: _460  and  _462
REMARK  186  A    between atoms: _462  and  _463
REMARK  187  A    between atoms: _466  and  _468
REMARK  188  A    between atoms: _468  and  _469
REMARK  189  A    between atoms: _468  and  _471
REMARK  190  A    between atoms: _471  and  _472
REMARK  191  A    between atoms: _472  and  _473
REMARK  192  A    between atoms: _473  and  _474
REMARK  193  A    between atoms: _483  and  _485
REMARK  194  A    between atoms: _485  and  _486
REMARK  195  A    between atoms: _485  and  _488
REMARK  196  A    between atoms: _488  and  _489
REMARK  197  A    between atoms: _492  and  _494
REMARK  198  A    between atoms: _494  and  _495
REMARK  199  A    between atoms: _494  and  _497
REMARK  200  A    between atoms: _497  and  _498
REMARK  201  A    between atoms: _498  and  _499
REMARK  202  A    between atoms: _501  and  _503
REMARK  203  A    between atoms: _503  and  _504
REMARK  204  A    between atoms: _503  and  _506
REMARK  205  A    between atoms: _506  and  _507
REMARK  206  A    between atoms: _509  and  _511
REMARK  207  A    between atoms: _511  and  _512
REMARK  208  A    between atoms: _511  and  _514
REMARK  209  A    between atoms: _514  and  _515
REMARK  210  A    between atoms: _515  and  _516
REMARK  211  A    between atoms: _516  and  _517
REMARK  212  A    between atoms: _517  and  _518
REMARK  213  A    between atoms: _522  and  _524
REMARK  214  A    between atoms: _524  and  _525
REMARK  215  A    between atoms: _524  and  _527
REMARK  216  A    between atoms: _527  and  _528
REMARK  217  A    between atoms: _528  and  _529
REMARK  218  A    between atoms: _529  and  _530
REMARK  219  A    between atoms: _530  and  _531
REMARK  220  A    between atoms: _535  and  _537
REMARK  221  A    between atoms: _537  and  _538
REMARK  222  A    between atoms: _537  and  _540
REMARK  223  A    between atoms: _540  and  _541
REMARK  224  A    between atoms: _541  and  _542
REMARK  225  A    between atoms: _544  and  _546
REMARK  226  A    between atoms: _546  and  _547
REMARK  227  A    between atoms: _546  and  _549
REMARK  228  A    between atoms: _549  and  _550
REMARK  229  A    between atoms: _552  and  _554
REMARK  230  A    between atoms: _554  and  _555
REMARK  231  A    between atoms: _554  and  _557
REMARK  232  A    between atoms: _557  and  _558
REMARK  233  A    between atoms: _558  and  _559
REMARK  234  A    between atoms: _559  and  _560
REMARK  235  A    between atoms: _560  and  _561
REMARK  236  A    between atoms: _565  and  _567
REMARK  237  A    between atoms: _567  and  _568
REMARK  238  A    between atoms: _567  and  _570
REMARK  239  A    between atoms: _570  and  _571
REMARK  240  A    between atoms: _573  and  _575
REMARK  241  A    between atoms: _575  and  _576
REMARK  242  A    between atoms: _575  and  _578
REMARK  243  A    between atoms: _578  and  _579
REMARK  244  A    between atoms: _583  and  _584
REMARK  245  A    between atoms: _589  and  _591
REMARK  246  A    between atoms: _591  and  _592
REMARK  247  A    between atoms: _591  and  _594
REMARK  248  A    between atoms: _594  and  _595
REMARK  249  A    between atoms: _600  and  _601
REMARK  250  A    between atoms: _603  and  _605
REMARK  251  A    between atoms: _605  and  _606
REMARK  252  A    between atoms: _605  and  _608
REMARK  253  A    between atoms: _608  and  _609
REMARK                            x       y       z     vdW  Elec       q    Type
REMARK                         _______ _______ _______ _____ _____    ______ ____
ROOT
ATOM      1  C   HIS A   1      54.237  28.527  48.258  0.00  0.00    +0.239 C 
ATOM      2  O   HIS A   1      54.364  27.914  49.325  0.00  0.00    -0.274 OA
ATOM      3  N   ILE A   2      55.249  29.117  47.633  0.00  0.00    -0.298 N 
ATOM      4  H   ILE A   2      55.084  29.588  46.721  0.00  0.00    +0.150 HD
ENDROOT
BRANCH   1   5
ATOM      5  CA  HIS A   1      52.907  28.552  47.530  0.00  0.00    +0.151 C 
BRANCH   5   6
ATOM      6  N   HIS A   1      52.713  29.804  46.802  0.00  0.00    -0.238 NA
ATOM      7  H   HIS A   1      52.703  29.798  45.762  0.00  0.00    +0.142 HD
ENDBRANCH   5   6
BRANCH   5   8
ATOM      8  CB  HIS A   1      52.851  27.337  46.590  0.00  0.00    +0.074 C 
BRANCH   8   9
ATOM      9  CG  HIS A   1      51.474  27.005  46.112  0.00  0.00    +0.082 A 
ATOM     10  CD2 HIS A   1      50.259  27.250  46.656  0.00  0.00    +0.115 A 
ATOM     11  NE2 HIS A   1      49.321  26.713  45.808  0.00  0.00    -0.221 NA
ATOM     12  CE1 HIS A   1      49.938  26.195  44.760  0.00  0.00    +0.199 A 
ATOM     13  ND1 HIS A   1      51.239  26.353  44.921  0.00  0.00    -0.227 NA
ENDBRANCH   8   9
ENDBRANCH   5   8
ENDBRANCH   1   5
BRANCH   3  14
ATOM     14  CA  ILE A   2      56.582  29.114  48.205  0.00  0.00    +0.137 C 
BRANCH  14  15
ATOM     15  C   ILE A   2      56.601  30.070  49.382  0.00  0.00    +0.227 C 
ATOM     16  O   ILE A   2      57.263  29.817  50.384  0.00  0.00    -0.286 OA
ENDBRANCH  14  15
BRANCH  14  17
ATOM     17  CB  ILE A   2      57.667  29.467  47.159  0.00  0.00    +0.026 C 
ATOM     18  CG2 ILE A   2      58.984  29.777  47.854  0.00  0.00    +0.002 C 
BRANCH  17  19
ATOM     19  CG1 ILE A   2      57.846  28.298  46.180  0.00  0.00    +0.002 C 
ATOM     20  CD1 ILE A   2      58.494  28.651  44.854  0.00  0.00    +0.000 C 
ENDBRANCH  17  19
ENDBRANCH  14  17
ENDBRANCH   3  14
TORSDOF 8
REMARK  Name = ../refined-set-2016/1m83/1m83_pocket.pdb
REMARK  253 active torsions:
REMARK  status: ('A' for Active; 'I' for Inactive)
REMARK    1  A    between atoms: _1  and  _3
REMARK    2  A    between atoms: _3  and  _4
REMARK    3  A    between atoms: _3  and  _6
REMARK    4  A    between atoms: _6  and  _7
REMARK    5  A    between atoms: _9  and  _11
REMARK    6  A    between atoms: _11  and  _12
REMARK    7  A    between atoms: _14  and  _16
REMARK    8  A    between atoms: _16  and  _17
REMARK    9  A    between atoms: _16  and  _19
REMARK   10  A    between atoms: _19  and  _20
REMARK   11  A    between atoms: _23  and  _25
REMARK   12  A    between atoms: _25  and  _26
REMARK   13  A    between atoms: _25  and  _28
REMARK   14  A    between atoms: _28  and  _29
REMARK   15  A    between atoms: _29  and  _30
REMARK   16  A    between atoms: _36  and  _37
REMARK   17  A    between atoms: _42  and  _44
REMARK   18  A    between atoms: _44  and  _45
REMARK   19  A    between atoms: _44  and  _47
REMARK   20  A    between atoms: _47  and  _48
REMARK   21  A    between atoms: _50  and  _52
REMARK   22  A    between atoms: _52  and  _53
REMARK   23  A    between atoms: _55  and  _57
REMARK   24  A    between atoms: _57  and  _58
REMARK   25  A    between atoms: _57  and  _60
REMARK   26  A    between atoms: _63  and  _65
REMARK   27  A    between atoms: _65  and  _66
REMARK   28  A    between atoms: _65  and  _68
REMARK   29  A    between atoms: _68  and  _69
REMARK   30  A    between atoms: _72  and  _74
REMARK   31  A    between atoms: _74  and  _75
REMARK   32  A    between atoms: _74  and  _77
REMARK   33  A    between atoms: _77  and  _78
REMARK   34  A    between atoms: _81  and  _83
REMARK   35  A    between atoms: _83  and  _84
REMARK   36  A    between atoms: _83  and  _86
REMARK   37  A    between atoms: _86  and  _87
REMARK   38  A    between atoms: _90  and  _92
REMARK   39  A    between atoms: _92  and  _93
REMARK   40  A    between atoms: _95  and  _97
REMARK   41  A    between atoms: _97  and  _98
REMARK   42  A    between atoms: _97  and  _100
REMARK   43  A    between atoms: _100  and  _101
REMARK   44  A    between atoms: _106  and  _108
REMARK   45  A    between atoms: _108  and  _109
REMARK   46  A    between atoms: _108  and  _111
REMARK   47  A    between atoms: _111  and  _112
REMARK   48  A    between atoms: _117  and  _118
REMARK   49  A    between atoms: _120  and  _122
REMARK   50  A    between atoms: _122  and  _123
REMARK   51  A    between atoms: _122  and  _125
REMARK   52  A    between atoms: _125  and  _126
REMARK   53  A    between atoms: _129  and  _131
REMARK   54  A    between atoms: _131  and  _132
REMARK   55  A    between atoms: _134  and  _136
REMARK   56  A    between atoms: _136  and  _137
REMARK   57  A    between atoms: _140  and  _142
REMARK   58  A    between atoms: _142  and  _143
REMARK   59  A    between atoms: _142  and  _145
REMARK   60  A    between atoms: _145  and  _146
REMARK   61  A    between atoms: _149  and  _151
REMARK   62  A    between atoms: _151  and  _152
REMARK   63  A    between atoms: _151  and  _154
REMARK   64  A    between atoms: _154  and  _155
REMARK   65  A    between atoms: _155  and  _156
REMARK   66  A    between atoms: _156  and  _157
REMARK   67  A    between atoms: _166  and  _168
REMARK   68  A    between atoms: _168  and  _169
REMARK   69  A    between atoms: _168  and  _171
REMARK   70  A    between atoms: _171  and  _172
REMARK   71  A    between atoms: _172  and  _173
REMARK   72  A    between atoms: _178  and  _180
REMARK   73  A    between atoms: _180  and  _181
REMARK   74  A    between atoms: _180  and  _183
REMARK   75  A    between atoms: _183  and  _184
REMARK   76  A    between atoms: _190  and  _192
REMARK   77  A    between atoms: _192  and  _193
REMARK   78  A    between atoms: _192  and  _195
REMARK   79  A    between atoms: _197  and  _199
REMARK   80  A    between atoms: _199  and  _200
REMARK   81  A    between atoms: _199  and  _202
REMARK   82  A    between atoms: _205  and  _207
REMARK   83  A    between atoms: _207  and  _208
REMARK   84  A    between atoms: _207  and  _210
REMARK   85  A    between atoms: _210  and  _211
REMARK   86  A    between atoms: _216  and  _218
REMARK   87  A    between atoms: _218  and  _219
REMARK   88  A    between atoms: _222  and  _224
REMARK   89  A    between atoms: _224  and  _225
REMARK   90  A    between atoms: _224  and  _227
REMARK   91  A    between atoms: _227  and  _228
REMARK   92  A    between atoms: _231  and  _233
REMARK   93  A    between atoms: _233  and  _234
REMARK   94  A    between atoms: _233  and  _236
REMARK   95  A    between atoms: _239  and  _241
REMARK   96  A    between atoms: _241  and  _242
REMARK   97  A    between atoms: _241  and  _244
REMARK   98  A    between atoms: _244  and  _245
REMARK   99  A    between atoms: _245  and  _246
REMARK  100  A    between atoms: _251  and  _253
REMARK  101  A    between atoms: _253  and  _254
REMARK  102  A    between atoms: _253  and  _256
REMARK  103  A    between atoms: _256  and  _257
REMARK  104  A    between atoms: _260  and  _262
REMARK  105  A    between atoms: _262  and  _263
REMARK  106  A    between atoms: _262  and  _265
REMARK  107  A    between atoms: _265  and  _266
REMARK  108  A    between atoms: _271  and  _272
REMARK  109  A    between atoms: _274  and  _276
REMARK  110  A    between atoms: _276  and  _277
REMARK  111  A    between atoms: _276  and  _279
REMARK  112  A    between atoms: _279  and  _280
REMARK  113  A    between atoms: _280  and  _281
REMARK  114  A    between atoms: _286  and  _288
REMARK  115  A    between atoms: _288  and  _289
REMARK  116  A    between atoms: _288  and  _291
REMARK  117  A    between atoms: _291  and  _292
REMARK  118  A    between atoms: _292  and  _293
REMARK  119  A    between atoms: _293  and  _294
REMARK  120  A    between atoms: _294  and  _295
REMARK  121  A    between atoms: _299  and  _301
REMARK  122  A    between atoms: _301  and  _302
REMARK  123  A    between atoms: _301  and  _304
REMARK  124  A    between atoms: _304  and  _305
REMARK  125  A    between atoms: _310  and  _311
REMARK  126  A    between atoms: _313  and  _315
REMARK  127  A    between atoms: _315  and  _316
REMARK  128  A    between atoms: _315  and  _318
REMARK  129  A    between atoms: _318  and  _319
REMARK  130  A    between atoms: _319  and  _320
REMARK  131  A    between atoms: _322  and  _324
REMARK  132  A    between atoms: _324  and  _325
REMARK  133  A    between atoms: _324  and  _327
REMARK  134  A    between atoms: _331  and  _332
REMARK  135  A    between atoms: _337  and  _339
REMARK  136  A    between atoms: _339  and  _340
REMARK  137  A    between atoms: _339  and  _342
REMARK  138  A    between atoms: _345  and  _347
REMARK  139  A    between atoms: _347  and  _348
REMARK  140  A    between atoms: _350  and  _352
REMARK  141  A    between atoms: _352  and  _353
REMARK  142  A    between atoms: _352  and  _355
REMARK  143  A    between atoms: _355  and  _356
REMARK  144  A    between atoms: _356  and  _357
REMARK  145  A    between atoms: _360  and  _362
REMARK  146  A    between atoms: _362  and  _363
REMARK  147  A    between atoms: _362  and  _365
REMARK  148  A    between atoms: _365  and  _366
REMARK  149  A    between atoms: _369  and  _371
REMARK  150  A    between atoms: _371  and  _372
REMARK  151  A    between atoms: _371  and  _374
REMARK  152  A    between atoms: _374  and  _375
REMARK  153  A    between atoms: _375  and  _376
REMARK  154  A    between atoms: _381  and  _383
REMARK  155  A    between atoms: _383  and  _384
REMARK  156  A    between atoms: _383  and  _386
REMARK  157  A    between atoms: _386  and  _387
REMARK  158  A    between atoms: _387  and  _388
REMARK  159  A    between atoms: _388  and  _389
REMARK  160  A    between atoms: _389  and  _390
REMARK  161  A    between atoms: _394  and  _396
REMARK  162  A    between atoms: _396  and  _397
REMARK  163  A    between atoms: _396  and  _399
REMARK  164  A    between atoms: _399  and  _400
REMARK  165  A    between atoms: _405  and  _407
REMARK  166  A    between atoms: _407  and  _408
REMARK  167  A    between atoms: _407  and  _410
REMARK  168  A    between atoms: _410  and  _411
REMARK  169  A    between atoms: _414  and  _416
REMARK  170  A    between atoms: _416  and  _417
REMARK  171  A    between atoms: _416  and  _419
REMARK  172  A    between atoms: _419  and  _420
REMARK  173  A    between atoms: _420  and  _421
REMARK  174  A    between atoms: _421  and  _422
REMARK  175  A    between atoms: _431  and  _433
REMARK  176  A    between atoms: _433  and  _434
REMARK  177  A    between atoms: _433  and  _436
REMARK  178  A    between atoms: _436  and  _437
REMARK  179  A    between atoms: _441  and  _442
REMARK  180  A    between atoms: _447  and  _449
REMARK  181  A    between atoms: _449  and  _450
REMARK  182  A    between atoms: _449  and  _452
REMARK  183  A    between atoms: _455  and  _457
REMARK  184  A    between atoms: _457  and  _458
REMARK  185  A    between atoms: _460  and  _462
REMARK  186  A    between atoms: _462  and  _463
REMARK  187  A    between atoms: _466  and  _468
REMARK  188  A    between atoms: _468  and  _469
REMARK  189  A    between atoms: _468  and  _471
REMARK  190  A    between atoms: _471  and  _472
REMARK  191  A    between atoms: _472  and  _473
REMARK  192  A    between atoms: _473  and  _474
REMARK  193  A    between atoms: _483  and  _485
REMARK  194  A    between atoms: _485  and  _486
REMARK  195  A    between atoms: _485  and  _488
REMARK  196  A    between atoms: _488  and  _489
REMARK  197  A    between atoms: _492  and  _494
REMARK  198  A    between atoms: _494  and  _495
REMARK  199  A    between atoms: _494  and  _497
REMARK  200  A    between atoms: _497  and  _498
REMARK  201  A    between atoms: _498  and  _499
REMARK  202  A    between atoms: _501  and  _503
REMARK  203  A    between atoms: _503  and  _504
REMARK  204  A    between atoms: _503  and  _506
REMARK  205  A    between atoms: _506  and  _507
REMARK  206  A    between atoms: _509  and  _511
REMARK  207  A    between atoms: _511  and  _512
REMARK  208  A    between atoms: _511  and  _514
REMARK  209  A    between atoms: _514  and  _515
REMARK  210  A    between atoms: _515  and  _516
REMARK  211  A    between atoms: _516  and  _517
REMARK  212  A    between atoms: _517  and  _518
REMARK  213  A    between atoms: _522  and  _524
REMARK  214  A    between atoms: _524  and  _525
REMARK  215  A    between atoms: _524  and  _527
REMARK  216  A    between atoms: _527  and  _528
REMARK  217  A    between atoms: _528  and  _529
REMARK  218  A    between atoms: _529  and  _530
REMARK  219  A    between atoms: _530  and  _531
REMARK  220  A    between atoms: _535  and  _537
REMARK  221  A    between atoms: _537  and  _538
REMARK  222  A    between atoms: _537  and  _540
REMARK  223  A    between atoms: _540  and  _541
REMARK  224  A    between atoms: _541  and  _542
REMARK  225  A    between atoms: _544  and  _546
REMARK  226  A    between atoms: _546  and  _547
REMARK  227  A    between atoms: _546  and  _549
REMARK  228  A    between atoms: _549  and  _550
REMARK  229  A    between atoms: _552  and  _554
REMARK  230  A    between atoms: _554  and  _555
REMARK  231  A    between atoms: _554  and  _557
REMARK  232  A    between atoms: _557  and  _558
REMARK  233  A    between atoms: _558  and  _559
REMARK  234  A    between atoms: _559  and  _560
REMARK  235  A    between atoms: _560  and  _561
REMARK  236  A    between atoms: _565  and  _567
REMARK  237  A    between atoms: _567  and  _568
REMARK  238  A    between atoms: _567  and  _570
REMARK  239  A    between atoms: _570  and  _571
REMARK  240  A    between atoms: _573  and  _575
REMARK  241  A    between atoms: _575  and  _576
REMARK  242  A    between atoms: _575  and  _578
REMARK  243  A    between atoms: _578  and  _579
REMARK  244  A    between atoms: _583  and  _584
REMARK  245  A    between atoms: _589  and  _591
REMARK  246  A    between atoms: _591  and  _592
REMARK  247  A    between atoms: _591  and  _594
REMARK  248  A    between atoms: _594  and  _595
REMARK  249  A    between atoms: _600  and  _601
REMARK  250  A    between atoms: _603  and  _605
REMARK  251  A    between atoms: _605  and  _606
REMARK  252  A    between atoms: _605  and  _608
REMARK  253  A    between atoms: _608  and  _609
REMARK                            x       y       z     vdW  Elec       q    Type
REMARK                         _______ _______ _______ _____ _____    ______ ____
ROOT
ATOM      1  C   ARG A   1      62.875  31.505  40.497  0.00  0.00    +0.238 C 
ATOM      2  N   ILE A   2      62.306  32.665  40.190  0.00  0.00    -0.297 N 
ATOM      3  H   ILE A   2      62.509  33.480  40.803  0.00  0.00    +0.150 HD
ATOM      4  O   ARG A   1      62.707  30.469  39.858  0.00  0.00    -0.274 OA
ENDROOT
BRANCH   1   5
ATOM      5  CA  ARG A   1      63.712  31.528  41.775  0.00  0.00    +0.145 C 
BRANCH   5   6
ATOM      6  N   ARG A   1      62.886  31.001  42.847  0.00  0.00    -0.238 NA
ATOM      7  H   ARG A   1      62.431  30.073  42.730  0.00  0.00    +0.142 HD
ENDBRANCH   5   6
BRANCH   5   8
ATOM      8  CB  ARG A   1      65.014  30.750  41.604  0.00  0.00    +0.030 C 
BRANCH   8   9
ATOM      9  CG  ARG A   1      66.011  31.407  40.652  0.00  0.00    +0.045 C 
BRANCH   9  10
ATOM     10  CD  ARG A   1      66.886  30.327  40.015  0.00  0.00    +0.174 C 
BRANCH  10  11
ATOM     11  NE  ARG A   1      68.224  30.786  39.643  0.00  0.00    -0.265 N 
ATOM     12  CZ  ARG A   1      69.220  30.980  40.501  0.00  0.00    +0.342 C 
ATOM     13  NH2 ARG A   1      69.024  30.815  41.800  0.00  0.00    -0.292 N 
ATOM     14 HH21 ARG A   1      69.807  30.968  42.468  0.00  0.00    +0.255 HD
ATOM     15 HH22 ARG A   1      68.087  30.532  42.153  0.00  0.00    +0.255 HD
ATOM     16  NH1 ARG A   1      70.408  31.363  40.061  0.00  0.00    -0.292 N 
ATOM     17 HH11 ARG A   1      71.187  31.515  40.733  0.00  0.00    +0.255 HD
ATOM     18 HH12 ARG A   1      70.562  31.512  39.043  0.00  0.00    +0.255 HD
ATOM     19  HE  ARG A   1      68.409  30.974  38.637  0.00  0.00    +0.259 HD
ENDBRANCH  10  11
ENDBRANCH   9  10
ENDBRANCH   8   9
ENDBRANCH   5   8
ENDBRANCH   1   5
BRANCH   2  20
ATOM     20  CA  ILE A   2      61.415  32.876  39.052  0.00  0.00    +0.149 C 
BRANCH  20  21
ATOM     21  C   ILE A   2      62.152  33.623  37.938  0.00  0.00    +0.244 C 
ATOM     22  O   ILE A   2      62.757  34.667  38.187  0.00  0.00    -0.273 OA
ATOM     23  N   PRO A   3      62.145  33.068  36.726  0.00  0.00    -0.273 N 
ATOM     24  CD  PRO A   3      61.194  32.036  36.282  0.00  0.00    +0.094 C 
ATOM     25  CG  PRO A   3      61.739  31.614  34.952  0.00  0.00    +0.024 C 
ATOM     26  CB  PRO A   3      62.593  32.729  34.427  0.00  0.00    +0.030 C 
ATOM     27  CA  PRO A   3      62.852  33.690  35.600  0.00  0.00    +0.140 C 
BRANCH  27  28
ATOM     28  C   PRO A   3      62.311  35.080  35.266  0.00  0.00    +0.227 C 
ATOM     29  O   PRO A   3      61.119  35.340  35.392  0.00  0.00    -0.286 OA
ENDBRANCH  27  28
ENDBRANCH  20  21
BRANCH  20  30
ATOM     30  CB  ILE A   2      60.203  33.713  39.526  0.00  0.00    +0.027 C 
ATOM     31  CG2 ILE A   2      59.239  33.997  38.381  0.00  0.00    +0.002 C 
BRANCH  30  32
ATOM     32  CG1 ILE A   2      59.510  32.992  40.689  0.00  0.00    +0.002 C 
ATOM     33  CD1 ILE A   2      58.472  33.845  41.419  0.00  0.00    +0.000 C 
ENDBRANCH  30  32
ENDBRANCH  20  30
ENDBRANCH   2  20
TORSDOF 11
REMARK  Name = ../refined-set-2016/1m83/1m83_pocket.pdb
REMARK  253 active torsions:
REMARK  status: ('A' for Active; 'I' for Inactive)
REMARK    1  A    between atoms: _1  and  _3
REMARK    2  A    between atoms: _3  and  _4
REMARK    3  A    between atoms: _3  and  _6
REMARK    4  A    between atoms: _6  and  _7
REMARK    5  A    between atoms: _9  and  _11
REMARK    6  A    between atoms: _11  and  _12
REMARK    7  A    between atoms: _14  and  _16
REMARK    8  A    between atoms: _16  and  _17
REMARK    9  A    between atoms: _16  and  _19
REMARK   10  A    between atoms: _19  and  _20
REMARK   11  A    between atoms: _23  and  _25
REMARK   12  A    between atoms: _25  and  _26
REMARK   13  A    between atoms: _25  and  _28
REMARK   14  A    between atoms: _28  and  _29
REMARK   15  A    between atoms: _29  and  _30
REMARK   16  A    between atoms: _36  and  _37
REMARK   17  A    between atoms: _42  and  _44
REMARK   18  A    between atoms: _44  and  _45
REMARK   19  A    between atoms: _44  and  _47
REMARK   20  A    between atoms: _47  and  _48
REMARK   21  A    between atoms: _50  and  _52
REMARK   22  A    between atoms: _52  and  _53
REMARK   23  A    between atoms: _55  and  _57
REMARK   24  A    between atoms: _57  and  _58
REMARK   25  A    between atoms: _57  and  _60
REMARK   26  A    between atoms: _63  and  _65
REMARK   27  A    between atoms: _65  and  _66
REMARK   28  A    between atoms: _65  and  _68
REMARK   29  A    between atoms: _68  and  _69
REMARK   30  A    between atoms: _72  and  _74
REMARK   31  A    between atoms: _74  and  _75
REMARK   32  A    between atoms: _74  and  _77
REMARK   33  A    between atoms: _77  and  _78
REMARK   34  A    between atoms: _81  and  _83
REMARK   35  A    between atoms: _83  and  _84
REMARK   36  A    between atoms: _83  and  _86
REMARK   37  A    between atoms: _86  and  _87
REMARK   38  A    between atoms: _90  and  _92
REMARK   39  A    between atoms: _92  and  _93
REMARK   40  A    between atoms: _95  and  _97
REMARK   41  A    between atoms: _97  and  _98
REMARK   42  A    between atoms: _97  and  _100
REMARK   43  A    between atoms: _100  and  _101
REMARK   44  A    between atoms: _106  and  _108
REMARK   45  A    between atoms: _108  and  _109
REMARK   46  A    between atoms: _108  and  _111
REMARK   47  A    between atoms: _111  and  _112
REMARK   48  A    between atoms: _117  and  _118
REMARK   49  A    between atoms: _120  and  _122
REMARK   50  A    between atoms: _122  and  _123
REMARK   51  A    between atoms: _122  and  _125
REMARK   52  A    between atoms: _125  and  _126
REMARK   53  A    between atoms: _129  and  _131
REMARK   54  A    between atoms: _131  and  _132
REMARK   55  A    between atoms: _134  and  _136
REMARK   56  A    between atoms: _136  and  _137
REMARK   57  A    between atoms: _140  and  _142
REMARK   58  A    between atoms: _142  and  _143
REMARK   59  A    between atoms: _142  and  _145
REMARK   60  A    between atoms: _145  and  _146
REMARK   61  A    between atoms: _149  and  _151
REMARK   62  A    between atoms: _151  and  _152
REMARK   63  A    between atoms: _151  and  _154
REMARK   64  A    between atoms: _154  and  _155
REMARK   65  A    between atoms: _155  and  _156
REMARK   66  A    between atoms: _156  and  _157
REMARK   67  A    between atoms: _166  and  _168
REMARK   68  A    between atoms: _168  and  _169
REMARK   69  A    between atoms: _168  and  _171
REMARK   70  A    between atoms: _171  and  _172
REMARK   71  A    between atoms: _172  and  _173
REMARK   72  A    between atoms: _178  and  _180
REMARK   73  A    between atoms: _180  and  _181
REMARK   74  A    between atoms: _180  and  _183
REMARK   75  A    between atoms: _183  and  _184
REMARK   76  A    between atoms: _190  and  _192
REMARK   77  A    between atoms: _192  and  _193
REMARK   78  A    between atoms: _192  and  _195
REMARK   79  A    between atoms: _197  and  _199
REMARK   80  A    between atoms: _199  and  _200
REMARK   81  A    between atoms: _199  and  _202
REMARK   82  A    between atoms: _205  and  _207
REMARK   83  A    between atoms: _207  and  _208
REMARK   84  A    between atoms: _207  and  _210
REMARK   85  A    between atoms: _210  and  _211
REMARK   86  A    between atoms: _216  and  _218
REMARK   87  A    between atoms: _218  and  _219
REMARK   88  A    between atoms: _222  and  _224
REMARK   89  A    between atoms: _224  and  _225
REMARK   90  A    between atoms: _224  and  _227
REMARK   91  A    between atoms: _227  and  _228
REMARK   92  A    between atoms: _231  and  _233
REMARK   93  A    between atoms: _233  and  _234
REMARK   94  A    between atoms: _233  and  _236
REMARK   95  A    between atoms: _239  and  _241
REMARK   96  A    between atoms: _241  and  _242
REMARK   97  A    between atoms: _241  and  _244
REMARK   98  A    between atoms: _244  and  _245
REMARK   99  A    between atoms: _245  and  _246
REMARK  100  A    between atoms: _251  and  _253
REMARK  101  A    between atoms: _253  and  _254
REMARK  102  A    between atoms: _253  and  _256
REMARK  103  A    between atoms: _256  and  _257
REMARK  104  A    between atoms: _260  and  _262
REMARK  105  A    between atoms: _262  and  _263
REMARK  106  A    between atoms: _262  and  _265
REMARK  107  A    between atoms: _265  and  _266
REMARK  108  A    between atoms: _271  and  _272
REMARK  109  A    between atoms: _274  and  _276
REMARK  110  A    between atoms: _276  and  _277
REMARK  111  A    between atoms: _276  and  _279
REMARK  112  A    between atoms: _279  and  _280
REMARK  113  A    between atoms: _280  and  _281
REMARK  114  A    between atoms: _286  and  _288
REMARK  115  A    between atoms: _288  and  _289
REMARK  116  A    between atoms: _288  and  _291
REMARK  117  A    between atoms: _291  and  _292
REMARK  118  A    between atoms: _292  and  _293
REMARK  119  A    between atoms: _293  and  _294
REMARK  120  A    between atoms: _294  and  _295
REMARK  121  A    between atoms: _299  and  _301
REMARK  122  A    between atoms: _301  and  _302
REMARK  123  A    between atoms: _301  and  _304
REMARK  124  A    between atoms: _304  and  _305
REMARK  125  A    between atoms: _310  and  _311
REMARK  126  A    between atoms: _313  and  _315
REMARK  127  A    between atoms: _315  and  _316
REMARK  128  A    between atoms: _315  and  _318
REMARK  129  A    between atoms: _318  and  _319
REMARK  130  A    between atoms: _319  and  _320
REMARK  131  A    between atoms: _322  and  _324
REMARK  132  A    between atoms: _324  and  _325
REMARK  133  A    between atoms: _324  and  _327
REMARK  134  A    between atoms: _331  and  _332
REMARK  135  A    between atoms: _337  and  _339
REMARK  136  A    between atoms: _339  and  _340
REMARK  137  A    between atoms: _339  and  _342
REMARK  138  A    between atoms: _345  and  _347
REMARK  139  A    between atoms: _347  and  _348
REMARK  140  A    between atoms: _350  and  _352
REMARK  141  A    between atoms: _352  and  _353
REMARK  142  A    between atoms: _352  and  _355
REMARK  143  A    between atoms: _355  and  _356
REMARK  144  A    between atoms: _356  and  _357
REMARK  145  A    between atoms: _360  and  _362
REMARK  146  A    between atoms: _362  and  _363
REMARK  147  A    between atoms: _362  and  _365
REMARK  148  A    between atoms: _365  and  _366
REMARK  149  A    between atoms: _369  and  _371
REMARK  150  A    between atoms: _371  and  _372
REMARK  151  A    between atoms: _371  and  _374
REMARK  152  A    between atoms: _374  and  _375
REMARK  153  A    between atoms: _375  and  _376
REMARK  154  A    between atoms: _381  and  _383
REMARK  155  A    between atoms: _383  and  _384
REMARK  156  A    between atoms: _383  and  _386
REMARK  157  A    between atoms: _386  and  _387
REMARK  158  A    between atoms: _387  and  _388
REMARK  159  A    between atoms: _388  and  _389
REMARK  160  A    between atoms: _389  and  _390
REMARK  161  A    between atoms: _394  and  _396
REMARK  162  A    between atoms: _396  and  _397
REMARK  163  A    between atoms: _396  and  _399
REMARK  164  A    between atoms: _399  and  _400
REMARK  165  A    between atoms: _405  and  _407
REMARK  166  A    between atoms: _407  and  _408
REMARK  167  A    between atoms: _407  and  _410
REMARK  168  A    between atoms: _410  and  _411
REMARK  169  A    between atoms: _414  and  _416
REMARK  170  A    between atoms: _416  and  _417
REMARK  171  A    between atoms: _416  and  _419
REMARK  172  A    between atoms: _419  and  _420
REMARK  173  A    between atoms: _420  and  _421
REMARK  174  A    between atoms: _421  and  _422
REMARK  175  A    between atoms: _431  and  _433
REMARK  176  A    between atoms: _433  and  _434
REMARK  177  A    between atoms: _433  and  _436
REMARK  178  A    between atoms: _436  and  _437
REMARK  179  A    between atoms: _441  and  _442
REMARK  180  A    between atoms: _447  and  _449
REMARK  181  A    between atoms: _449  and  _450
REMARK  182  A    between atoms: _449  and  _452
REMARK  183  A    between atoms: _455  and  _457
REMARK  184  A    between atoms: _457  and  _458
REMARK  185  A    between atoms: _460  and  _462
REMARK  186  A    between atoms: _462  and  _463
REMARK  187  A    between atoms: _466  and  _468
REMARK  188  A    between atoms: _468  and  _469
REMARK  189  A    between atoms: _468  and  _471
REMARK  190  A    between atoms: _471  and  _472
REMARK  191  A    between atoms: _472  and  _473
REMARK  192  A    between atoms: _473  and  _474
REMARK  193  A    between atoms: _483  and  _485
REMARK  194  A    between atoms: _485  and  _486
REMARK  195  A    between atoms: _485  and  _488
REMARK  196  A    between atoms: _488  and  _489
REMARK  197  A    between atoms: _492  and  _494
REMARK  198  A    between atoms: _494  and  _495
REMARK  199  A    between atoms: _494  and  _497
REMARK  200  A    between atoms: _497  and  _498
REMARK  201  A    between atoms: _498  and  _499
REMARK  202  A    between atoms: _501  and  _503
REMARK  203  A    between atoms: _503  and  _504
REMARK  204  A    between atoms: _503  and  _506
REMARK  205  A    between atoms: _506  and  _507
REMARK  206  A    between atoms: _509  and  _511
REMARK  207  A    between atoms: _511  and  _512
REMARK  208  A    between atoms: _511  and  _514
REMARK  209  A    between atoms: _514  and  _515
REMARK  210  A    between atoms: _515  and  _516
REMARK  211  A    between atoms: _516  and  _517
REMARK  212  A    between atoms: _517  and  _518
REMARK  213  A    between atoms: _522  and  _524
REMARK  214  A    between atoms: _524  and  _525
REMARK  215  A    between atoms: _524  and  _527
REMARK  216  A    between atoms: _527  and  _528
REMARK  217  A    between atoms: _528  and  _529
REMARK  218  A    between atoms: _529  and  _530
REMARK  219  A    between atoms: _530  and  _531
REMARK  220  A    between atoms: _535  and  _537
REMARK  221  A    between atoms: _537  and  _538
REMARK  222  A    between atoms: _537  and  _540
REMARK  223  A    between atoms: _540  and  _541
REMARK  224  A    between atoms: _541  and  _542
REMARK  225  A    between atoms: _544  and  _546
REMARK  226  A    between atoms: _546  and  _547
REMARK  227  A    between atoms: _546  and  _549
REMARK  228  A    between atoms: _549  and  _550
REMARK  229  A    between atoms: _552  and  _554
REMARK  230  A    between atoms: _554  and  _555
REMARK  231  A    between atoms: _554  and  _557
REMARK  232  A    between atoms: _557  and  _558
REMARK  233  A    between atoms: _558  and  _559
REMARK  234  A    between atoms: _559  and  _560
REMARK  235  A    between atoms: _560  and  _561
REMARK  236  A    between atoms: _565  and  _567
REMARK  237  A    between atoms: _567  and  _568
REMARK  238  A    between atoms: _567  and  _570
REMARK  239  A    between atoms: _570  and  _571
REMARK  240  A    between atoms: _573  and  _575
REMARK  241  A    between atoms: _575  and  _576
REMARK  242  A    between atoms: _575  and  _578
REMARK  243  A    between atoms: _578  and  _579
REMARK  244  A    between atoms: _583  and  _584
REMARK  245  A    between atoms: _589  and  _591
REMARK  246  A    between atoms: _591  and  _592
REMARK  247  A    between atoms: _591  and  _594
REMARK  248  A    between atoms: _594  and  _595
REMARK  249  A    between atoms: _600  and  _601
REMARK  250  A    between atoms: _603  and  _605
REMARK  251  A    between atoms: _605  and  _606
REMARK  252  A    between atoms: _605  and  _608
REMARK  253  A    between atoms: _608  and  _609
REMARK                            x       y       z     vdW  Elec       q    Type
REMARK                         _______ _______ _______ _____ _____    ______ ____
ROOT
ATOM      1  CA  ARG A   4      54.135  33.208  32.726  0.00  0.00    +0.149 C 
ENDROOT
BRANCH   1   4
ATOM      2  C   ALA A   3      56.225  32.845  33.872  0.00  0.00    +0.241 C 
ATOM      3  O   ALA A   3      55.639  32.231  34.760  0.00  0.00    -0.273 OA
ATOM      4  N   ARG A   4      55.586  33.349  32.822  0.00  0.00    -0.297 N 
ATOM      5  H   ARG A   4      56.115  33.841  32.074  0.00  0.00    +0.150 HD
BRANCH   2   6
ATOM      6  CA  ALA A   3      57.724  33.092  33.957  0.00  0.00    +0.149 C 
ATOM      7  CB  ALA A   3      58.051  34.029  35.109  0.00  0.00    +0.031 C 
BRANCH   6   9
ATOM      8  C   GLY A   2      58.305  32.809  31.636  0.00  0.00    +0.243 C 
ATOM      9  N   ALA A   3      58.285  33.590  32.707  0.00  0.00    -0.297 N 
ATOM     10  H   ALA A   3      58.668  34.555  32.656  0.00  0.00    +0.150 HD
ATOM     11  O   GLY A   2      57.849  31.666  31.649  0.00  0.00    -0.273 OA
BRANCH   8  12
ATOM     12  CA  GLY A   2      58.939  33.376  30.366  0.00  0.00    +0.176 C 
BRANCH  12  15
ATOM     13  C   VAL A   1      60.847  34.735  31.128  0.00  0.00    +0.238 C 
ATOM     14  O   VAL A   1      61.404  33.795  31.679  0.00  0.00    -0.274 OA
ATOM     15  N   GLY A   2      59.674  34.633  30.511  0.00  0.00    -0.296 N 
ATOM     16  H   GLY A   2      59.255  35.496  30.108  0.00  0.00    +0.150 HD
BRANCH  13  17
ATOM     17  CA  VAL A   1      61.494  36.110  31.107  0.00  0.00    +0.145 C 
BRANCH  17  18
ATOM     18  CB  VAL A   1      62.409  36.158  29.861  0.00  0.00    +0.025 C 
ATOM     19  CG2 VAL A   1      63.327  37.371  29.909  0.00  0.00    +0.002 C 
ATOM     20  CG1 VAL A   1      61.565  36.167  28.597  0.00  0.00    +0.002 C 
ENDBRANCH  17  18
BRANCH  17  21
ATOM     21  N   VAL A   1      62.257  36.321  32.333  0.00  0.00    -0.238 NA
ATOM     22  H   VAL A   1      63.087  35.723  32.519  0.00  0.00    +0.142 HD
ENDBRANCH  17  21
ENDBRANCH  13  17
ENDBRANCH  12  15
ENDBRANCH   8  12
ENDBRANCH   6   9
ENDBRANCH   2   6
ENDBRANCH   1   4
BRANCH   1  23
ATOM     23  C   ARG A   4      53.590  33.174  31.299  0.00  0.00    +0.241 C 
ATOM     24  O   ARG A   4      53.072  34.164  30.783  0.00  0.00    -0.273 OA
ATOM     25  N   ILE A   5      53.749  32.027  30.653  0.00  0.00    -0.297 N 
ATOM     26  H   ILE A   5      54.212  31.234  31.141  0.00  0.00    +0.150 HD
BRANCH  25  27
ATOM     27  CA  ILE A   5      53.296  31.843  29.281  0.00  0.00    +0.149 C 
BRANCH  27  28
ATOM     28  C   ILE A   5      51.777  31.719  29.305  0.00  0.00    +0.241 C 
ATOM     29  O   ILE A   5      51.206  31.038  30.159  0.00  0.00    -0.273 OA
ATOM     30  N   MET A   6      51.115  32.450  28.418  0.00  0.00    -0.297 N 
ATOM     31  H   MET A   6      51.637  33.017  27.719  0.00  0.00    +0.150 HD
BRANCH  30  32
ATOM     32  CA  MET A   6      49.672  32.460  28.421  0.00  0.00    +0.149 C 
BRANCH  32  33
ATOM     33  C   MET A   6      49.026  31.438  27.500  0.00  0.00    +0.241 C 
ATOM     34  N   SER A   7      47.765  31.151  27.782  0.00  0.00    -0.296 N 
ATOM     35  H   SER A   7      47.321  31.588  28.614  0.00  0.00    +0.150 HD
ATOM     36  O   MET A   6      49.654  30.898  26.591  0.00  0.00    -0.273 OA
BRANCH  34  37
ATOM     37  CA  SER A   7      46.985  30.243  26.962  0.00  0.00    +0.166 C 
BRANCH  37  38
ATOM     38  C   SER A   7      46.880  30.861  25.573  0.00  0.00    +0.229 C 
ATOM     39  O   SER A   7      46.804  32.077  25.426  0.00  0.00    -0.286 OA
ENDBRANCH  37  38
BRANCH  37  40
ATOM     40  CB  SER A   7      45.597  30.030  27.564  0.00  0.00    +0.165 C 
BRANCH  40  41
ATOM     41  OG  SER A   7      44.684  29.537  26.593  0.00  0.00    -0.380 OA
ATOM     42  H   SER A   7      43.796  29.409  27.012  0.00  0.00    +0.211 HD
ENDBRANCH  40  41
ENDBRANCH  37  40
ENDBRANCH  34  37
ENDBRANCH  32  33
BRANCH  32  43
ATOM     43  CB  MET A   6      49.124  33.881  28.178  0.00  0.00    +0.041 C 
BRANCH  43  44
ATOM     44  CG  MET A   6      49.848  34.962  28.965  0.00  0.00    +0.060 C 
BRANCH  44  45
ATOM     45  SD  MET A   6      49.697  34.764  30.763  0.00  0.00    -0.139 S 
ATOM     46  CE  MET A   6      48.135  35.548  31.109  0.00  0.00    +0.069 C 
ENDBRANCH  44  45
ENDBRANCH  43  44
ENDBRANCH  32  43
ENDBRANCH  30  32
ENDBRANCH  27  28
BRANCH  27  47
ATOM     47  CB  ILE A   5      53.964  30.585  28.651  0.00  0.00    +0.027 C 
ATOM     48  CG2 ILE A   5      53.397  30.258  27.260  0.00  0.00    +0.002 C 
BRANCH  47  49
ATOM     49  CG1 ILE A   5      55.493  30.739  28.635  0.00  0.00    +0.002 C 
ATOM     50  CD1 ILE A   5      55.995  32.019  27.944  0.00  0.00    +0.000 C 
ENDBRANCH  47  49
ENDBRANCH  27  47
ENDBRANCH  25  27
ENDBRANCH   1  23
BRANCH   1  51
ATOM     51  CB  ARG A   4      53.447  34.286  33.566  0.00  0.00    +0.033 C 
BRANCH  51  52
ATOM     52  CG  ARG A   4      51.923  34.116  33.649  0.00  0.00    +0.045 C 
BRANCH  52  53
ATOM     53  CD  ARG A   4      51.332  34.897  34.807  0.00  0.00    +0.174 C 
BRANCH  53  54
ATOM     54  NE  ARG A   4      50.019  35.459  34.485  0.00  0.00    -0.265 N 
ATOM     55  CZ  ARG A   4      48.861  34.958  34.905  0.00  0.00    +0.342 C 
ATOM     56  NH2 ARG A   4      48.839  33.865  35.655  0.00  0.00    -0.292 N 
ATOM     57 HH21 ARG A   4      47.931  33.476  35.981  0.00  0.00    +0.255 HD
ATOM     58 HH22 ARG A   4      49.730  33.396  35.917  0.00  0.00    +0.255 HD
ATOM     59  NH1 ARG A   4      47.722  35.553  34.578  0.00  0.00    -0.292 N 
ATOM     60 HH11 ARG A   4      46.817  35.160  34.907  0.00  0.00    +0.255 HD
ATOM     61 HH12 ARG A   4      47.734  36.412  33.992  0.00  0.00    +0.255 HD
ATOM     62  HE  ARG A   4      49.990  36.309  33.886  0.00  0.00    +0.259 HD
ENDBRANCH  53  54
ENDBRANCH  52  53
ENDBRANCH  51  52
ENDBRANCH   1  51
TORSDOF 26
REMARK  Name = ../refined-set-2016/1m83/1m83_pocket.pdb
REMARK  253 active torsions:
REMARK  status: ('A' for Active; 'I' for Inactive)
REMARK    1  A    between atoms: _1  and  _3
REMARK    2  A    between atoms: _3  and  _4
REMARK    3  A    between atoms: _3  and  _6
REMARK    4  A    between atoms: _6  and  _7
REMARK    5  A    between atoms: _9  and  _11
REMARK    6  A    between atoms: _11  and  _12
REMARK    7  A    between atoms: _14  and  _16
REMARK    8  A    between atoms: _16  and  _17
REMARK    9  A    between atoms: _16  and  _19
REMARK   10  A    between atoms: _19  and  _20
REMARK   11  A    between atoms: _23  and  _25
REMARK   12  A    between atoms: _25  and  _26
REMARK   13  A    between atoms: _25  and  _28
REMARK   14  A    between atoms: _28  and  _29
REMARK   15  A    between atoms: _29  and  _30
REMARK   16  A    between atoms: _36  and  _37
REMARK   17  A    between atoms: _42  and  _44
REMARK   18  A    between atoms: _44  and  _45
REMARK   19  A    between atoms: _44  and  _47
REMARK   20  A    between atoms: _47  and  _48
REMARK   21  A    between atoms: _50  and  _52
REMARK   22  A    between atoms: _52  and  _53
REMARK   23  A    between atoms: _55  and  _57
REMARK   24  A    between atoms: _57  and  _58
REMARK   25  A    between atoms: _57  and  _60
REMARK   26  A    between atoms: _63  and  _65
REMARK   27  A    between atoms: _65  and  _66
REMARK   28  A    between atoms: _65  and  _68
REMARK   29  A    between atoms: _68  and  _69
REMARK   30  A    between atoms: _72  and  _74
REMARK   31  A    between atoms: _74  and  _75
REMARK   32  A    between atoms: _74  and  _77
REMARK   33  A    between atoms: _77  and  _78
REMARK   34  A    between atoms: _81  and  _83
REMARK   35  A    between atoms: _83  and  _84
REMARK   36  A    between atoms: _83  and  _86
REMARK   37  A    between atoms: _86  and  _87
REMARK   38  A    between atoms: _90  and  _92
REMARK   39  A    between atoms: _92  and  _93
REMARK   40  A    between atoms: _95  and  _97
REMARK   41  A    between atoms: _97  and  _98
REMARK   42  A    between atoms: _97  and  _100
REMARK   43  A    between atoms: _100  and  _101
REMARK   44  A    between atoms: _106  and  _108
REMARK   45  A    between atoms: _108  and  _109
REMARK   46  A    between atoms: _108  and  _111
REMARK   47  A    between atoms: _111  and  _112
REMARK   48  A    between atoms: _117  and  _118
REMARK   49  A    between atoms: _120  and  _122
REMARK   50  A    between atoms: _122  and  _123
REMARK   51  A    between atoms: _122  and  _125
REMARK   52  A    between atoms: _125  and  _126
REMARK   53  A    between atoms: _129  and  _131
REMARK   54  A    between atoms: _131  and  _132
REMARK   55  A    between atoms: _134  and  _136
REMARK   56  A    between atoms: _136  and  _137
REMARK   57  A    between atoms: _140  and  _142
REMARK   58  A    between atoms: _142  and  _143
REMARK   59  A    between atoms: _142  and  _145
REMARK   60  A    between atoms: _145  and  _146
REMARK   61  A    between atoms: _149  and  _151
REMARK   62  A    between atoms: _151  and  _152
REMARK   63  A    between atoms: _151  and  _154
REMARK   64  A    between atoms: _154  and  _155
REMARK   65  A    between atoms: _155  and  _156
REMARK   66  A    between atoms: _156  and  _157
REMARK   67  A    between atoms: _166  and  _168
REMARK   68  A    between atoms: _168  and  _169
REMARK   69  A    between atoms: _168  and  _171
REMARK   70  A    between atoms: _171  and  _172
REMARK   71  A    between atoms: _172  and  _173
REMARK   72  A    between atoms: _178  and  _180
REMARK   73  A    between atoms: _180  and  _181
REMARK   74  A    between atoms: _180  and  _183
REMARK   75  A    between atoms: _183  and  _184
REMARK   76  A    between atoms: _190  and  _192
REMARK   77  A    between atoms: _192  and  _193
REMARK   78  A    between atoms: _192  and  _195
REMARK   79  A    between atoms: _197  and  _199
REMARK   80  A    between atoms: _199  and  _200
REMARK   81  A    between atoms: _199  and  _202
REMARK   82  A    between atoms: _205  and  _207
REMARK   83  A    between atoms: _207  and  _208
REMARK   84  A    between atoms: _207  and  _210
REMARK   85  A    between atoms: _210  and  _211
REMARK   86  A    between atoms: _216  and  _218
REMARK   87  A    between atoms: _218  and  _219
REMARK   88  A    between atoms: _222  and  _224
REMARK   89  A    between atoms: _224  and  _225
REMARK   90  A    between atoms: _224  and  _227
REMARK   91  A    between atoms: _227  and  _228
REMARK   92  A    between atoms: _231  and  _233
REMARK   93  A    between atoms: _233  and  _234
REMARK   94  A    between atoms: _233  and  _236
REMARK   95  A    between atoms: _239  and  _241
REMARK   96  A    between atoms: _241  and  _242
REMARK   97  A    between atoms: _241  and  _244
REMARK   98  A    between atoms: _244  and  _245
REMARK   99  A    between atoms: _245  and  _246
REMARK  100  A    between atoms: _251  and  _253
REMARK  101  A    between atoms: _253  and  _254
REMARK  102  A    between atoms: _253  and  _256
REMARK  103  A    between atoms: _256  and  _257
REMARK  104  A    between atoms: _260  and  _262
REMARK  105  A    between atoms: _262  and  _263
REMARK  106  A    between atoms: _262  and  _265
REMARK  107  A    between atoms: _265  and  _266
REMARK  108  A    between atoms: _271  and  _272
REMARK  109  A    between atoms: _274  and  _276
REMARK  110  A    between atoms: _276  and  _277
REMARK  111  A    between atoms: _276  and  _279
REMARK  112  A    between atoms: _279  and  _280
REMARK  113  A    between atoms: _280  and  _281
REMARK  114  A    between atoms: _286  and  _288
REMARK  115  A    between atoms: _288  and  _289
REMARK  116  A    between atoms: _288  and  _291
REMARK  117  A    between atoms: _291  and  _292
REMARK  118  A    between atoms: _292  and  _293
REMARK  119  A    between atoms: _293  and  _294
REMARK  120  A    between atoms: _294  and  _295
REMARK  121  A    between atoms: _299  and  _301
REMARK  122  A    between atoms: _301  and  _302
REMARK  123  A    between atoms: _301  and  _304
REMARK  124  A    between atoms: _304  and  _305
REMARK  125  A    between atoms: _310  and  _311
REMARK  126  A    between atoms: _313  and  _315
REMARK  127  A    between atoms: _315  and  _316
REMARK  128  A    between atoms: _315  and  _318
REMARK  129  A    between atoms: _318  and  _319
REMARK  130  A    between atoms: _319  and  _320
REMARK  131  A    between atoms: _322  and  _324
REMARK  132  A    between atoms: _324  and  _325
REMARK  133  A    between atoms: _324  and  _327
REMARK  134  A    between atoms: _331  and  _332
REMARK  135  A    between atoms: _337  and  _339
REMARK  136  A    between atoms: _339  and  _340
REMARK  137  A    between atoms: _339  and  _342
REMARK  138  A    between atoms: _345  and  _347
REMARK  139  A    between atoms: _347  and  _348
REMARK  140  A    between atoms: _350  and  _352
REMARK  141  A    between atoms: _352  and  _353
REMARK  142  A    between atoms: _352  and  _355
REMARK  143  A    between atoms: _355  and  _356
REMARK  144  A    between atoms: _356  and  _357
REMARK  145  A    between atoms: _360  and  _362
REMARK  146  A    between atoms: _362  and  _363
REMARK  147  A    between atoms: _362  and  _365
REMARK  148  A    between atoms: _365  and  _366
REMARK  149  A    between atoms: _369  and  _371
REMARK  150  A    between atoms: _371  and  _372
REMARK  151  A    between atoms: _371  and  _374
REMARK  152  A    between atoms: _374  and  _375
REMARK  153  A    between atoms: _375  and  _376
REMARK  154  A    between atoms: _381  and  _383
REMARK  155  A    between atoms: _383  and  _384
REMARK  156  A    between atoms: _383  and  _386
REMARK  157  A    between atoms: _386  and  _387
REMARK  158  A    between atoms: _387  and  _388
REMARK  159  A    between atoms: _388  and  _389
REMARK  160  A    between atoms: _389  and  _390
REMARK  161  A    between atoms: _394  and  _396
REMARK  162  A    between atoms: _396  and  _397
REMARK  163  A    between atoms: _396  and  _399
REMARK  164  A    between atoms: _399  and  _400
REMARK  165  A    between atoms: _405  and  _407
REMARK  166  A    between atoms: _407  and  _408
REMARK  167  A    between atoms: _407  and  _410
REMARK  168  A    between atoms: _410  and  _411
REMARK  169  A    between atoms: _414  and  _416
REMARK  170  A    between atoms: _416  and  _417
REMARK  171  A    between atoms: _416  and  _419
REMARK  172  A    between atoms: _419  and  _420
REMARK  173  A    between atoms: _420  and  _421
REMARK  174  A    between atoms: _421  and  _422
REMARK  175  A    between atoms: _431  and  _433
REMARK  176  A    between atoms: _433  and  _434
REMARK  177  A    between atoms: _433  and  _436
REMARK  178  A    between atoms: _436  and  _437
REMARK  179  A    between atoms: _441  and  _442
REMARK  180  A    between atoms: _447  and  _449
REMARK  181  A    between atoms: _449  and  _450
REMARK  182  A    between atoms: _449  and  _452
REMARK  183  A    between atoms: _455  and  _457
REMARK  184  A    between atoms: _457  and  _458
REMARK  185  A    between atoms: _460  and  _462
REMARK  186  A    between atoms: _462  and  _463
REMARK  187  A    between atoms: _466  and  _468
REMARK  188  A    between atoms: _468  and  _469
REMARK  189  A    between atoms: _468  and  _471
REMARK  190  A    between atoms: _471  and  _472
REMARK  191  A    between atoms: _472  and  _473
REMARK  192  A    between atoms: _473  and  _474
REMARK  193  A    between atoms: _483  and  _485
REMARK  194  A    between atoms: _485  and  _486
REMARK  195  A    between atoms: _485  and  _488
REMARK  196  A    between atoms: _488  and  _489
REMARK  197  A    between atoms: _492  and  _494
REMARK  198  A    between atoms: _494  and  _495
REMARK  199  A    between atoms: _494  and  _497
REMARK  200  A    between atoms: _497  and  _498
REMARK  201  A    between atoms: _498  and  _499
REMARK  202  A    between atoms: _501  and  _503
REMARK  203  A    between atoms: _503  and  _504
REMARK  204  A    between atoms: _503  and  _506
REMARK  205  A    between atoms: _506  and  _507
REMARK  206  A    between atoms: _509  and  _511
REMARK  207  A    between atoms: _511  and  _512
REMARK  208  A    between atoms: _511  and  _514
REMARK  209  A    between atoms: _514  and  _515
REMARK  210  A    between atoms: _515  and  _516
REMARK  211  A    between atoms: _516  and  _517
REMARK  212  A    between atoms: _517  and  _518
REMARK  213  A    between atoms: _522  and  _524
REMARK  214  A    between atoms: _524  and  _525
REMARK  215  A    between atoms: _524  and  _527
REMARK  216  A    between atoms: _527  and  _528
REMARK  217  A    between atoms: _528  and  _529
REMARK  218  A    between atoms: _529  and  _530
REMARK  219  A    between atoms: _530  and  _531
REMARK  220  A    between atoms: _535  and  _537
REMARK  221  A    between atoms: _537  and  _538
REMARK  222  A    between atoms: _537  and  _540
REMARK  223  A    between atoms: _540  and  _541
REMARK  224  A    between atoms: _541  and  _542
REMARK  225  A    between atoms: _544  and  _546
REMARK  226  A    between atoms: _546  and  _547
REMARK  227  A    between atoms: _546  and  _549
REMARK  228  A    between atoms: _549  and  _550
REMARK  229  A    between atoms: _552  and  _554
REMARK  230  A    between atoms: _554  and  _555
REMARK  231  A    between atoms: _554  and  _557
REMARK  232  A    between atoms: _557  and  _558
REMARK  233  A    between atoms: _558  and  _559
REMARK  234  A    between atoms: _559  and  _560
REMARK  235  A    between atoms: _560  and  _561
REMARK  236  A    between atoms: _565  and  _567
REMARK  237  A    between atoms: _567  and  _568
REMARK  238  A    between atoms: _567  and  _570
REMARK  239  A    between atoms: _570  and  _571
REMARK  240  A    between atoms: _573  and  _575
REMARK  241  A    between atoms: _575  and  _576
REMARK  242  A    between atoms: _575  and  _578
REMARK  243  A    between atoms: _578  and  _579
REMARK  244  A    between atoms: _583  and  _584
REMARK  245  A    between atoms: _589  and  _591
REMARK  246  A    between atoms: _591  and  _592
REMARK  247  A    between atoms: _591  and  _594
REMARK  248  A    between atoms: _594  and  _595
REMARK  249  A    between atoms: _600  and  _601
REMARK  250  A    between atoms: _603  and  _605
REMARK  251  A    between atoms: _605  and  _606
REMARK  252  A    between atoms: _605  and  _608
REMARK  253  A    between atoms: _608  and  _609
REMARK                            x       y       z     vdW  Elec       q    Type
REMARK                         _______ _______ _______ _____ _____    ______ ____
ROOT
ATOM      1  CA  SER A   4      48.084  24.948  31.713  0.00  0.00    +0.178 C 
ENDROOT
BRANCH   1   2
ATOM      2  C   SER A   4      48.015  23.608  31.021  0.00  0.00    +0.243 C 
ATOM      3  N   LYS A   5      48.855  22.693  31.473  0.00  0.00    -0.297 N 
ATOM      4  H   LYS A   5      49.466  22.925  32.282  0.00  0.00    +0.150 HD
ATOM      5  O   SER A   4      47.210  23.399  30.120  0.00  0.00    -0.273 OA
BRANCH   3   6
ATOM      6  CA  LYS A   5      48.950  21.373  30.873  0.00  0.00    +0.149 C 
BRANCH   6   7
ATOM      7  C   LYS A   5      47.642  20.615  31.012  0.00  0.00    +0.241 C 
ATOM      8  N   SER A   6      46.843  21.008  31.986  0.00  0.00    -0.295 N 
ATOM      9  H   SER A   6      47.130  21.783  32.617  0.00  0.00    +0.150 HD
ATOM     10  O   LYS A   5      47.326  19.725  30.222  0.00  0.00    -0.273 OA
BRANCH   8  11
ATOM     11  CA  SER A   6      45.556  20.350  32.172  0.00  0.00    +0.178 C 
BRANCH  11  12
ATOM     12  C   SER A   6      44.355  21.172  31.695  0.00  0.00    +0.243 C 
ATOM     13  O   SER A   6      43.225  20.896  32.071  0.00  0.00    -0.273 OA
ATOM     14  N   ASP A   7      44.588  22.177  30.862  0.00  0.00    -0.296 N 
ATOM     15  H   ASP A   7      45.563  22.409  30.586  0.00  0.00    +0.150 HD
BRANCH  14  16
ATOM     16  CA  ASP A   7      43.475  22.957  30.334  0.00  0.00    +0.160 C 
BRANCH  16  17
ATOM     17  C   ASP A   7      42.568  22.007  29.560  0.00  0.00    +0.244 C 
ATOM     18  N   PRO A   8      41.261  22.098  29.798  0.00  0.00    -0.273 N 
ATOM     19  CD  PRO A   8      40.626  22.822  30.915  0.00  0.00    +0.094 C 
ATOM     20  CG  PRO A   8      39.315  22.110  31.084  0.00  0.00    +0.024 C 
ATOM     21  CB  PRO A   8      38.959  21.680  29.685  0.00  0.00    +0.030 C 
ATOM     22  CA  PRO A   8      40.299  21.246  29.093  0.00  0.00    +0.140 C 
ATOM     23  O   ASP A   7      43.052  21.192  28.763  0.00  0.00    -0.273 OA
BRANCH  22  24
ATOM     24  C   PRO A   8      40.313  21.444  27.581  0.00  0.00    +0.227 C 
ATOM     25  O   PRO A   8      39.831  20.597  26.838  0.00  0.00    -0.286 OA
ENDBRANCH  22  24
ENDBRANCH  16  17
BRANCH  16  26
ATOM     26  CB  ASP A   7      43.996  24.044  29.380  0.00  0.00    +0.143 C 
BRANCH  26  27
ATOM     27  CG  ASP A   7      42.938  25.057  29.021  0.00  0.00    +0.367 C 
ATOM     28  OD2 ASP A   7      43.198  26.246  29.255  0.00  0.00    -0.246 OA
ATOM     29  OD1 ASP A   7      41.832  24.664  28.558  0.00  0.00    -0.246 OA
ENDBRANCH  26  27
ENDBRANCH  16  26
ENDBRANCH  14  16
ENDBRANCH  11  12
BRANCH  11  30
ATOM     30  CB  SER A   6      45.363  19.932  33.624  0.00  0.00    +0.166 C 
BRANCH  30  31
ATOM     31  OG  SER A   6      45.038  21.075  34.385  0.00  0.00    -0.380 OA
ATOM     32  H   SER A   6      45.774  21.734  34.319  0.00  0.00    +0.211 HD
ENDBRANCH  30  31
ENDBRANCH  11  30
ENDBRANCH   8  11
ENDBRANCH   6   7
BRANCH   6  33
ATOM     33  CB  LYS A   5      50.133  20.611  31.485  0.00  0.00    +0.029 C 
BRANCH  33  34
ATOM     34  CG  LYS A   5      49.753  19.459  32.413  0.00  0.00    +0.000 C 
BRANCH  34  35
ATOM     35  CD  LYS A   5      51.004  18.646  32.792  0.00  0.00    -0.024 C 
BRANCH  35  36
ATOM     36  CE  LYS A   5      52.058  19.517  33.503  0.00  0.00    -0.086 C 
BRANCH  36  37
ATOM     37  NZ  LYS A   5      51.869  19.551  34.988  0.00  0.00    +0.380 N 
ATOM     38  HZ1 LYS A   5      52.604  20.150  35.416  0.00  0.00    -0.089 HD
ATOM     39  HZ2 LYS A   5      51.942  18.586  35.368  0.00  0.00    -0.089 HD
ATOM     40  HZ3 LYS A   5      50.930  19.941  35.208  0.00  0.00    -0.089 HD
ENDBRANCH  36  37
ENDBRANCH  35  36
ENDBRANCH  34  35
ENDBRANCH  33  34
ENDBRANCH   6  33
ENDBRANCH   3   6
ENDBRANCH   1   2
BRANCH   1  43
ATOM     41  C   MET A   3      49.094  26.938  30.734  0.00  0.00    +0.241 C 
ATOM     42  O   MET A   3      49.994  26.920  31.548  0.00  0.00    -0.273 OA
ATOM     43  N   SER A   4      48.113  26.044  30.744  0.00  0.00    -0.295 N 
ATOM     44  H   SER A   4      47.346  26.124  30.046  0.00  0.00    +0.150 HD
BRANCH  41  45
ATOM     45  CA  MET A   3      49.011  28.070  29.702  0.00  0.00    +0.149 C 
BRANCH  45  48
ATOM     46  C   LYS A   2      48.025  29.735  31.171  0.00  0.00    +0.241 C 
ATOM     47  O   LYS A   2      46.970  29.109  31.264  0.00  0.00    -0.273 OA
ATOM     48  N   MET A   3      49.035  29.319  30.428  0.00  0.00    -0.297 N 
ATOM     49  H   MET A   3      49.884  29.916  30.363  0.00  0.00    +0.150 HD
BRANCH  46  50
ATOM     50  CA  LYS A   2      48.245  31.074  31.895  0.00  0.00    +0.149 C 
BRANCH  50  52
ATOM     51  C   LYS A   1      46.288  32.281  31.179  0.00  0.00    +0.238 C 
ATOM     52  N   LYS A   2      46.981  31.734  32.170  0.00  0.00    -0.297 N 
ATOM     53  H   LYS A   2      46.619  31.778  33.144  0.00  0.00    +0.150 HD
ATOM     54  O   LYS A   1      46.680  32.267  30.002  0.00  0.00    -0.274 OA
BRANCH  51  55
ATOM     55  CA  LYS A   1      44.941  32.885  31.551  0.00  0.00    +0.145 C 
BRANCH  55  56
ATOM     56  N   LYS A   1      44.649  34.015  30.674  0.00  0.00    -0.238 NA
ATOM     57  H   LYS A   1      44.564  33.852  29.650  0.00  0.00    +0.142 HD
ENDBRANCH  55  56
BRANCH  55  58
ATOM     58  CB  LYS A   1      43.862  31.799  31.423  0.00  0.00    +0.026 C 
BRANCH  58  59
ATOM     59  CG  LYS A   1      42.436  32.305  31.458  0.00  0.00    -0.000 C 
BRANCH  59  60
ATOM     60  CD  LYS A   1      41.451  31.155  31.651  0.00  0.00    -0.024 C 
BRANCH  60  61
ATOM     61  CE  LYS A   1      41.656  30.055  30.616  0.00  0.00    -0.086 C 
BRANCH  61  62
ATOM     62  NZ  LYS A   1      40.363  29.458  30.158  0.00  0.00    +0.380 N 
ATOM     63  HZ1 LYS A   1      39.865  29.046  30.973  0.00  0.00    -0.089 HD
ATOM     64  HZ2 LYS A   1      39.773  30.199  29.729  0.00  0.00    -0.089 HD
ATOM     65  HZ3 LYS A   1      40.555  28.716  29.455  0.00  0.00    -0.089 HD
ENDBRANCH  61  62
ENDBRANCH  60  61
ENDBRANCH  59  60
ENDBRANCH  58  59
ENDBRANCH  55  58
ENDBRANCH  51  55
ENDBRANCH  50  52
BRANCH  50  66
ATOM     66  CB  LYS A   2      49.065  30.880  33.182  0.00  0.00    +0.029 C 
BRANCH  66  67
ATOM     67  CG  LYS A   2      48.716  29.601  33.966  0.00  0.00    +0.000 C 
BRANCH  67  68
ATOM     68  CD  LYS A   2      49.787  29.323  35.024  0.00  0.00    -0.024 C 
BRANCH  68  69
ATOM     69  CE  LYS A   2      49.469  28.077  35.864  0.00  0.00    -0.086 C 
BRANCH  69  70
ATOM     70  NZ  LYS A   2      49.505  26.796  35.076  0.00  0.00    +0.380 N 
ATOM     71  HZ1 LYS A   2      49.282  25.998  35.704  0.00  0.00    -0.089 HD
ATOM     72  HZ2 LYS A   2      50.454  26.666  34.672  0.00  0.00    -0.089 HD
ATOM     73  HZ3 LYS A   2      48.804  26.842  34.309  0.00  0.00    -0.089 HD
ENDBRANCH  69  70
ENDBRANCH  68  69
ENDBRANCH  67  68
ENDBRANCH  66  67
ENDBRANCH  50  66
ENDBRANCH  46  50
ENDBRANCH  45  48
BRANCH  45  74
ATOM     74  CB  MET A   3      50.222  28.009  28.755  0.00  0.00    +0.041 C 
BRANCH  74  75
ATOM     75  CG  MET A   3      50.287  26.707  27.984  0.00  0.00    +0.060 C 
BRANCH  75  76
ATOM     76  SD  MET A   3      51.577  26.676  26.765  0.00  0.00    -0.139 S 
ATOM     77  CE  MET A   3      50.822  27.861  25.543  0.00  0.00    +0.069 C 
ENDBRANCH  75  76
ENDBRANCH  74  75
ENDBRANCH  45  74
ENDBRANCH  41  45
ENDBRANCH   1  43
BRANCH   1  78
ATOM     78  CB  SER A   4      46.911  25.085  32.681  0.00  0.00    +0.166 C 
BRANCH  78  79
ATOM     79  OG  SER A   4      47.038  26.250  33.471  0.00  0.00    -0.380 OA
ATOM     80  H   SER A   4      47.059  27.046  32.882  0.00  0.00    +0.211 HD
ENDBRANCH  78  79
ENDBRANCH   1  78
TORSDOF 39
REMARK  Name = ../refined-set-2016/1m83/1m83_pocket.pdb
REMARK  253 active torsions:
REMARK  status: ('A' for Active; 'I' for Inactive)
REMARK    1  A    between atoms: _1  and  _3
REMARK    2  A    between atoms: _3  and  _4
REMARK    3  A    between atoms: _3  and  _6
REMARK    4  A    between atoms: _6  and  _7
REMARK    5  A    between atoms: _9  and  _11
REMARK    6  A    between atoms: _11  and  _12
REMARK    7  A    between atoms: _14  and  _16
REMARK    8  A    between atoms: _16  and  _17
REMARK    9  A    between atoms: _16  and  _19
REMARK   10  A    between atoms: _19  and  _20
REMARK   11  A    between atoms: _23  and  _25
REMARK   12  A    between atoms: _25  and  _26
REMARK   13  A    between atoms: _25  and  _28
REMARK   14  A    between atoms: _28  and  _29
REMARK   15  A    between atoms: _29  and  _30
REMARK   16  A    between atoms: _36  and  _37
REMARK   17  A    between atoms: _42  and  _44
REMARK   18  A    between atoms: _44  and  _45
REMARK   19  A    between atoms: _44  and  _47
REMARK   20  A    between atoms: _47  and  _48
REMARK   21  A    between atoms: _50  and  _52
REMARK   22  A    between atoms: _52  and  _53
REMARK   23  A    between atoms: _55  and  _57
REMARK   24  A    between atoms: _57  and  _58
REMARK   25  A    between atoms: _57  and  _60
REMARK   26  A    between atoms: _63  and  _65
REMARK   27  A    between atoms: _65  and  _66
REMARK   28  A    between atoms: _65  and  _68
REMARK   29  A    between atoms: _68  and  _69
REMARK   30  A    between atoms: _72  and  _74
REMARK   31  A    between atoms: _74  and  _75
REMARK   32  A    between atoms: _74  and  _77
REMARK   33  A    between atoms: _77  and  _78
REMARK   34  A    between atoms: _81  and  _83
REMARK   35  A    between atoms: _83  and  _84
REMARK   36  A    between atoms: _83  and  _86
REMARK   37  A    between atoms: _86  and  _87
REMARK   38  A    between atoms: _90  and  _92
REMARK   39  A    between atoms: _92  and  _93
REMARK   40  A    between atoms: _95  and  _97
REMARK   41  A    between atoms: _97  and  _98
REMARK   42  A    between atoms: _97  and  _100
REMARK   43  A    between atoms: _100  and  _101
REMARK   44  A    between atoms: _106  and  _108
REMARK   45  A    between atoms: _108  and  _109
REMARK   46  A    between atoms: _108  and  _111
REMARK   47  A    between atoms: _111  and  _112
REMARK   48  A    between atoms: _117  and  _118
REMARK   49  A    between atoms: _120  and  _122
REMARK   50  A    between atoms: _122  and  _123
REMARK   51  A    between atoms: _122  and  _125
REMARK   52  A    between atoms: _125  and  _126
REMARK   53  A    between atoms: _129  and  _131
REMARK   54  A    between atoms: _131  and  _132
REMARK   55  A    between atoms: _134  and  _136
REMARK   56  A    between atoms: _136  and  _137
REMARK   57  A    between atoms: _140  and  _142
REMARK   58  A    between atoms: _142  and  _143
REMARK   59  A    between atoms: _142  and  _145
REMARK   60  A    between atoms: _145  and  _146
REMARK   61  A    between atoms: _149  and  _151
REMARK   62  A    between atoms: _151  and  _152
REMARK   63  A    between atoms: _151  and  _154
REMARK   64  A    between atoms: _154  and  _155
REMARK   65  A    between atoms: _155  and  _156
REMARK   66  A    between atoms: _156  and  _157
REMARK   67  A    between atoms: _166  and  _168
REMARK   68  A    between atoms: _168  and  _169
REMARK   69  A    between atoms: _168  and  _171
REMARK   70  A    between atoms: _171  and  _172
REMARK   71  A    between atoms: _172  and  _173
REMARK   72  A    between atoms: _178  and  _180
REMARK   73  A    between atoms: _180  and  _181
REMARK   74  A    between atoms: _180  and  _183
REMARK   75  A    between atoms: _183  and  _184
REMARK   76  A    between atoms: _190  and  _192
REMARK   77  A    between atoms: _192  and  _193
REMARK   78  A    between atoms: _192  and  _195
REMARK   79  A    between atoms: _197  and  _199
REMARK   80  A    between atoms: _199  and  _200
REMARK   81  A    between atoms: _199  and  _202
REMARK   82  A    between atoms: _205  and  _207
REMARK   83  A    between atoms: _207  and  _208
REMARK   84  A    between atoms: _207  and  _210
REMARK   85  A    between atoms: _210  and  _211
REMARK   86  A    between atoms: _216  and  _218
REMARK   87  A    between atoms: _218  and  _219
REMARK   88  A    between atoms: _222  and  _224
REMARK   89  A    between atoms: _224  and  _225
REMARK   90  A    between atoms: _224  and  _227
REMARK   91  A    between atoms: _227  and  _228
REMARK   92  A    between atoms: _231  and  _233
REMARK   93  A    between atoms: _233  and  _234
REMARK   94  A    between atoms: _233  and  _236
REMARK   95  A    between atoms: _239  and  _241
REMARK   96  A    between atoms: _241  and  _242
REMARK   97  A    between atoms: _241  and  _244
REMARK   98  A    between atoms: _244  and  _245
REMARK   99  A    between atoms: _245  and  _246
REMARK  100  A    between atoms: _251  and  _253
REMARK  101  A    between atoms: _253  and  _254
REMARK  102  A    between atoms: _253  and  _256
REMARK  103  A    between atoms: _256  and  _257
REMARK  104  A    between atoms: _260  and  _262
REMARK  105  A    between atoms: _262  and  _263
REMARK  106  A    between atoms: _262  and  _265
REMARK  107  A    between atoms: _265  and  _266
REMARK  108  A    between atoms: _271  and  _272
REMARK  109  A    between atoms: _274  and  _276
REMARK  110  A    between atoms: _276  and  _277
REMARK  111  A    between atoms: _276  and  _279
REMARK  112  A    between atoms: _279  and  _280
REMARK  113  A    between atoms: _280  and  _281
REMARK  114  A    between atoms: _286  and  _288
REMARK  115  A    between atoms: _288  and  _289
REMARK  116  A    between atoms: _288  and  _291
REMARK  117  A    between atoms: _291  and  _292
REMARK  118  A    between atoms: _292  and  _293
REMARK  119  A    between atoms: _293  and  _294
REMARK  120  A    between atoms: _294  and  _295
REMARK  121  A    between atoms: _299  and  _301
REMARK  122  A    between atoms: _301  and  _302
REMARK  123  A    between atoms: _301  and  _304
REMARK  124  A    between atoms: _304  and  _305
REMARK  125  A    between atoms: _310  and  _311
REMARK  126  A    between atoms: _313  and  _315
REMARK  127  A    between atoms: _315  and  _316
REMARK  128  A    between atoms: _315  and  _318
REMARK  129  A    between atoms: _318  and  _319
REMARK  130  A    between atoms: _319  and  _320
REMARK  131  A    between atoms: _322  and  _324
REMARK  132  A    between atoms: _324  and  _325
REMARK  133  A    between atoms: _324  and  _327
REMARK  134  A    between atoms: _331  and  _332
REMARK  135  A    between atoms: _337  and  _339
REMARK  136  A    between atoms: _339  and  _340
REMARK  137  A    between atoms: _339  and  _342
REMARK  138  A    between atoms: _345  and  _347
REMARK  139  A    between atoms: _347  and  _348
REMARK  140  A    between atoms: _350  and  _352
REMARK  141  A    between atoms: _352  and  _353
REMARK  142  A    between atoms: _352  and  _355
REMARK  143  A    between atoms: _355  and  _356
REMARK  144  A    between atoms: _356  and  _357
REMARK  145  A    between atoms: _360  and  _362
REMARK  146  A    between atoms: _362  and  _363
REMARK  147  A    between atoms: _362  and  _365
REMARK  148  A    between atoms: _365  and  _366
REMARK  149  A    between atoms: _369  and  _371
REMARK  150  A    between atoms: _371  and  _372
REMARK  151  A    between atoms: _371  and  _374
REMARK  152  A    between atoms: _374  and  _375
REMARK  153  A    between atoms: _375  and  _376
REMARK  154  A    between atoms: _381  and  _383
REMARK  155  A    between atoms: _383  and  _384
REMARK  156  A    between atoms: _383  and  _386
REMARK  157  A    between atoms: _386  and  _387
REMARK  158  A    between atoms: _387  and  _388
REMARK  159  A    between atoms: _388  and  _389
REMARK  160  A    between atoms: _389  and  _390
REMARK  161  A    between atoms: _394  and  _396
REMARK  162  A    between atoms: _396  and  _397
REMARK  163  A    between atoms: _396  and  _399
REMARK  164  A    between atoms: _399  and  _400
REMARK  165  A    between atoms: _405  and  _407
REMARK  166  A    between atoms: _407  and  _408
REMARK  167  A    between atoms: _407  and  _410
REMARK  168  A    between atoms: _410  and  _411
REMARK  169  A    between atoms: _414  and  _416
REMARK  170  A    between atoms: _416  and  _417
REMARK  171  A    between atoms: _416  and  _419
REMARK  172  A    between atoms: _419  and  _420
REMARK  173  A    between atoms: _420  and  _421
REMARK  174  A    between atoms: _421  and  _422
REMARK  175  A    between atoms: _431  and  _433
REMARK  176  A    between atoms: _433  and  _434
REMARK  177  A    between atoms: _433  and  _436
REMARK  178  A    between atoms: _436  and  _437
REMARK  179  A    between atoms: _441  and  _442
REMARK  180  A    between atoms: _447  and  _449
REMARK  181  A    between atoms: _449  and  _450
REMARK  182  A    between atoms: _449  and  _452
REMARK  183  A    between atoms: _455  and  _457
REMARK  184  A    between atoms: _457  and  _458
REMARK  185  A    between atoms: _460  and  _462
REMARK  186  A    between atoms: _462  and  _463
REMARK  187  A    between atoms: _466  and  _468
REMARK  188  A    between atoms: _468  and  _469
REMARK  189  A    between atoms: _468  and  _471
REMARK  190  A    between atoms: _471  and  _472
REMARK  191  A    between atoms: _472  and  _473
REMARK  192  A    between atoms: _473  and  _474
REMARK  193  A    between atoms: _483  and  _485
REMARK  194  A    between atoms: _485  and  _486
REMARK  195  A    between atoms: _485  and  _488
REMARK  196  A    between atoms: _488  and  _489
REMARK  197  A    between atoms: _492  and  _494
REMARK  198  A    between atoms: _494  and  _495
REMARK  199  A    between atoms: _494  and  _497
REMARK  200  A    between atoms: _497  and  _498
REMARK  201  A    between atoms: _498  and  _499
REMARK  202  A    between atoms: _501  and  _503
REMARK  203  A    between atoms: _503  and  _504
REMARK  204  A    between atoms: _503  and  _506
REMARK  205  A    between atoms: _506  and  _507
REMARK  206  A    between atoms: _509  and  _511
REMARK  207  A    between atoms: _511  and  _512
REMARK  208  A    between atoms: _511  and  _514
REMARK  209  A    between atoms: _514  and  _515
REMARK  210  A    between atoms: _515  and  _516
REMARK  211  A    between atoms: _516  and  _517
REMARK  212  A    between atoms: _517  and  _518
REMARK  213  A    between atoms: _522  and  _524
REMARK  214  A    between atoms: _524  and  _525
REMARK  215  A    between atoms: _524  and  _527
REMARK  216  A    between atoms: _527  and  _528
REMARK  217  A    between atoms: _528  and  _529
REMARK  218  A    between atoms: _529  and  _530
REMARK  219  A    between atoms: _530  and  _531
REMARK  220  A    between atoms: _535  and  _537
REMARK  221  A    between atoms: _537  and  _538
REMARK  222  A    between atoms: _537  and  _540
REMARK  223  A    between atoms: _540  and  _541
REMARK  224  A    between atoms: _541  and  _542
REMARK  225  A    between atoms: _544  and  _546
REMARK  226  A    between atoms: _546  and  _547
REMARK  227  A    between atoms: _546  and  _549
REMARK  228  A    between atoms: _549  and  _550
REMARK  229  A    between atoms: _552  and  _554
REMARK  230  A    between atoms: _554  and  _555
REMARK  231  A    between atoms: _554  and  _557
REMARK  232  A    between atoms: _557  and  _558
REMARK  233  A    between atoms: _558  and  _559
REMARK  234  A    between atoms: _559  and  _560
REMARK  235  A    between atoms: _560  and  _561
REMARK  236  A    between atoms: _565  and  _567
REMARK  237  A    between atoms: _567  and  _568
REMARK  238  A    between atoms: _567  and  _570
REMARK  239  A    between atoms: _570  and  _571
REMARK  240  A    between atoms: _573  and  _575
REMARK  241  A    between atoms: _575  and  _576
REMARK  242  A    between atoms: _575  and  _578
REMARK  243  A    between atoms: _578  and  _579
REMARK  244  A    between atoms: _583  and  _584
REMARK  245  A    between atoms: _589  and  _591
REMARK  246  A    between atoms: _591  and  _592
REMARK  247  A    between atoms: _591  and  _594
REMARK  248  A    between atoms: _594  and  _595
REMARK  249  A    between atoms: _600  and  _601
REMARK  250  A    between atoms: _603  and  _605
REMARK  251  A    between atoms: _605  and  _606
REMARK  252  A    between atoms: _605  and  _608
REMARK  253  A    between atoms: _608  and  _609
REMARK                            x       y       z     vdW  Elec       q    Type
REMARK                         _______ _______ _______ _____ _____    ______ ____
ROOT
ATOM      1  CG  TYR A   1      48.188  22.635  26.359  0.00  0.00    -0.020 A 
ATOM      2  CD2 TYR A   1      46.989  22.513  27.041  0.00  0.00    -0.001 A 
ATOM      3  CE2 TYR A   1      46.243  21.342  26.984  0.00  0.00    +0.036 A 
ATOM      4  CZ  TYR A   1      46.688  20.285  26.235  0.00  0.00    +0.134 A 
ATOM      5  CE1 TYR A   1      47.883  20.379  25.541  0.00  0.00    +0.036 A 
ATOM      6  CD1 TYR A   1      48.618  21.552  25.593  0.00  0.00    -0.001 A 
ENDROOT
BRANCH   4   7
ATOM      7  OH  TYR A   1      45.937  19.125  26.201  0.00  0.00    -0.506 OA
ATOM      8  HH  TYR A   1      46.386  18.459  25.622  0.00  0.00    +0.292 HD
ENDBRANCH   4   7
BRANCH   1   9
ATOM      9  CB  TYR A   1      48.957  23.941  26.372  0.00  0.00    +0.051 C 
BRANCH   9  10
ATOM     10  CA  TYR A   1      48.815  24.739  25.062  0.00  0.00    +0.137 C 
BRANCH  10  11
ATOM     11  N   TYR A   1      47.417  25.000  24.811  0.00  0.00    -0.239 NA
ATOM     12  H   TYR A   1      46.795  24.224  24.507  0.00  0.00    +0.142 HD
ENDBRANCH  10  11
BRANCH  10  13
ATOM     13  C   TYR A   1      49.389  23.922  23.940  0.00  0.00    +0.224 C 
ATOM     14  O   TYR A   1      48.668  23.323  23.147  0.00  0.00    -0.287 OA
ENDBRANCH  10  13
ENDBRANCH   9  10
ENDBRANCH   1   9
TORSDOF 5
REMARK  Name = ../refined-set-2016/1m83/1m83_pocket.pdb
REMARK  253 active torsions:
REMARK  status: ('A' for Active; 'I' for Inactive)
REMARK    1  A    between atoms: _1  and  _3
REMARK    2  A    between atoms: _3  and  _4
REMARK    3  A    between atoms: _3  and  _6
REMARK    4  A    between atoms: _6  and  _7
REMARK    5  A    between atoms: _9  and  _11
REMARK    6  A    between atoms: _11  and  _12
REMARK    7  A    between atoms: _14  and  _16
REMARK    8  A    between atoms: _16  and  _17
REMARK    9  A    between atoms: _16  and  _19
REMARK   10  A    between atoms: _19  and  _20
REMARK   11  A    between atoms: _23  and  _25
REMARK   12  A    between atoms: _25  and  _26
REMARK   13  A    between atoms: _25  and  _28
REMARK   14  A    between atoms: _28  and  _29
REMARK   15  A    between atoms: _29  and  _30
REMARK   16  A    between atoms: _36  and  _37
REMARK   17  A    between atoms: _42  and  _44
REMARK   18  A    between atoms: _44  and  _45
REMARK   19  A    between atoms: _44  and  _47
REMARK   20  A    between atoms: _47  and  _48
REMARK   21  A    between atoms: _50  and  _52
REMARK   22  A    between atoms: _52  and  _53
REMARK   23  A    between atoms: _55  and  _57
REMARK   24  A    between atoms: _57  and  _58
REMARK   25  A    between atoms: _57  and  _60
REMARK   26  A    between atoms: _63  and  _65
REMARK   27  A    between atoms: _65  and  _66
REMARK   28  A    between atoms: _65  and  _68
REMARK   29  A    between atoms: _68  and  _69
REMARK   30  A    between atoms: _72  and  _74
REMARK   31  A    between atoms: _74  and  _75
REMARK   32  A    between atoms: _74  and  _77
REMARK   33  A    between atoms: _77  and  _78
REMARK   34  A    between atoms: _81  and  _83
REMARK   35  A    between atoms: _83  and  _84
REMARK   36  A    between atoms: _83  and  _86
REMARK   37  A    between atoms: _86  and  _87
REMARK   38  A    between atoms: _90  and  _92
REMARK   39  A    between atoms: _92  and  _93
REMARK   40  A    between atoms: _95  and  _97
REMARK   41  A    between atoms: _97  and  _98
REMARK   42  A    between atoms: _97  and  _100
REMARK   43  A    between atoms: _100  and  _101
REMARK   44  A    between atoms: _106  and  _108
REMARK   45  A    between atoms: _108  and  _109
REMARK   46  A    between atoms: _108  and  _111
REMARK   47  A    between atoms: _111  and  _112
REMARK   48  A    between atoms: _117  and  _118
REMARK   49  A    between atoms: _120  and  _122
REMARK   50  A    between atoms: _122  and  _123
REMARK   51  A    between atoms: _122  and  _125
REMARK   52  A    between atoms: _125  and  _126
REMARK   53  A    between atoms: _129  and  _131
REMARK   54  A    between atoms: _131  and  _132
REMARK   55  A    between atoms: _134  and  _136
REMARK   56  A    between atoms: _136  and  _137
REMARK   57  A    between atoms: _140  and  _142
REMARK   58  A    between atoms: _142  and  _143
REMARK   59  A    between atoms: _142  and  _145
REMARK   60  A    between atoms: _145  and  _146
REMARK   61  A    between atoms: _149  and  _151
REMARK   62  A    between atoms: _151  and  _152
REMARK   63  A    between atoms: _151  and  _154
REMARK   64  A    between atoms: _154  and  _155
REMARK   65  A    between atoms: _155  and  _156
REMARK   66  A    between atoms: _156  and  _157
REMARK   67  A    between atoms: _166  and  _168
REMARK   68  A    between atoms: _168  and  _169
REMARK   69  A    between atoms: _168  and  _171
REMARK   70  A    between atoms: _171  and  _172
REMARK   71  A    between atoms: _172  and  _173
REMARK   72  A    between atoms: _178  and  _180
REMARK   73  A    between atoms: _180  and  _181
REMARK   74  A    between atoms: _180  and  _183
REMARK   75  A    between atoms: _183  and  _184
REMARK   76  A    between atoms: _190  and  _192
REMARK   77  A    between atoms: _192  and  _193
REMARK   78  A    between atoms: _192  and  _195
REMARK   79  A    between atoms: _197  and  _199
REMARK   80  A    between atoms: _199  and  _200
REMARK   81  A    between atoms: _199  and  _202
REMARK   82  A    between atoms: _205  and  _207
REMARK   83  A    between atoms: _207  and  _208
REMARK   84  A    between atoms: _207  and  _210
REMARK   85  A    between atoms: _210  and  _211
REMARK   86  A    between atoms: _216  and  _218
REMARK   87  A    between atoms: _218  and  _219
REMARK   88  A    between atoms: _222  and  _224
REMARK   89  A    between atoms: _224  and  _225
REMARK   90  A    between atoms: _224  and  _227
REMARK   91  A    between atoms: _227  and  _228
REMARK   92  A    between atoms: _231  and  _233
REMARK   93  A    between atoms: _233  and  _234
REMARK   94  A    between atoms: _233  and  _236
REMARK   95  A    between atoms: _239  and  _241
REMARK   96  A    between atoms: _241  and  _242
REMARK   97  A    between atoms: _241  and  _244
REMARK   98  A    between atoms: _244  and  _245
REMARK   99  A    between atoms: _245  and  _246
REMARK  100  A    between atoms: _251  and  _253
REMARK  101  A    between atoms: _253  and  _254
REMARK  102  A    between atoms: _253  and  _256
REMARK  103  A    between atoms: _256  and  _257
REMARK  104  A    between atoms: _260  and  _262
REMARK  105  A    between atoms: _262  and  _263
REMARK  106  A    between atoms: _262  and  _265
REMARK  107  A    between atoms: _265  and  _266
REMARK  108  A    between atoms: _271  and  _272
REMARK  109  A    between atoms: _274  and  _276
REMARK  110  A    between atoms: _276  and  _277
REMARK  111  A    between atoms: _276  and  _279
REMARK  112  A    between atoms: _279  and  _280
REMARK  113  A    between atoms: _280  and  _281
REMARK  114  A    between atoms: _286  and  _288
REMARK  115  A    between atoms: _288  and  _289
REMARK  116  A    between atoms: _288  and  _291
REMARK  117  A    between atoms: _291  and  _292
REMARK  118  A    between atoms: _292  and  _293
REMARK  119  A    between atoms: _293  and  _294
REMARK  120  A    between atoms: _294  and  _295
REMARK  121  A    between atoms: _299  and  _301
REMARK  122  A    between atoms: _301  and  _302
REMARK  123  A    between atoms: _301  and  _304
REMARK  124  A    between atoms: _304  and  _305
REMARK  125  A    between atoms: _310  and  _311
REMARK  126  A    between atoms: _313  and  _315
REMARK  127  A    between atoms: _315  and  _316
REMARK  128  A    between atoms: _315  and  _318
REMARK  129  A    between atoms: _318  and  _319
REMARK  130  A    between atoms: _319  and  _320
REMARK  131  A    between atoms: _322  and  _324
REMARK  132  A    between atoms: _324  and  _325
REMARK  133  A    between atoms: _324  and  _327
REMARK  134  A    between atoms: _331  and  _332
REMARK  135  A    between atoms: _337  and  _339
REMARK  136  A    between atoms: _339  and  _340
REMARK  137  A    between atoms: _339  and  _342
REMARK  138  A    between atoms: _345  and  _347
REMARK  139  A    between atoms: _347  and  _348
REMARK  140  A    between atoms: _350  and  _352
REMARK  141  A    between atoms: _352  and  _353
REMARK  142  A    between atoms: _352  and  _355
REMARK  143  A    between atoms: _355  and  _356
REMARK  144  A    between atoms: _356  and  _357
REMARK  145  A    between atoms: _360  and  _362
REMARK  146  A    between atoms: _362  and  _363
REMARK  147  A    between atoms: _362  and  _365
REMARK  148  A    between atoms: _365  and  _366
REMARK  149  A    between atoms: _369  and  _371
REMARK  150  A    between atoms: _371  and  _372
REMARK  151  A    between atoms: _371  and  _374
REMARK  152  A    between atoms: _374  and  _375
REMARK  153  A    between atoms: _375  and  _376
REMARK  154  A    between atoms: _381  and  _383
REMARK  155  A    between atoms: _383  and  _384
REMARK  156  A    between atoms: _383  and  _386
REMARK  157  A    between atoms: _386  and  _387
REMARK  158  A    between atoms: _387  and  _388
REMARK  159  A    between atoms: _388  and  _389
REMARK  160  A    between atoms: _389  and  _390
REMARK  161  A    between atoms: _394  and  _396
REMARK  162  A    between atoms: _396  and  _397
REMARK  163  A    between atoms: _396  and  _399
REMARK  164  A    between atoms: _399  and  _400
REMARK  165  A    between atoms: _405  and  _407
REMARK  166  A    between atoms: _407  and  _408
REMARK  167  A    between atoms: _407  and  _410
REMARK  168  A    between atoms: _410  and  _411
REMARK  169  A    between atoms: _414  and  _416
REMARK  170  A    between atoms: _416  and  _417
REMARK  171  A    between atoms: _416  and  _419
REMARK  172  A    between atoms: _419  and  _420
REMARK  173  A    between atoms: _420  and  _421
REMARK  174  A    between atoms: _421  and  _422
REMARK  175  A    between atoms: _431  and  _433
REMARK  176  A    between atoms: _433  and  _434
REMARK  177  A    between atoms: _433  and  _436
REMARK  178  A    between atoms: _436  and  _437
REMARK  179  A    between atoms: _441  and  _442
REMARK  180  A    between atoms: _447  and  _449
REMARK  181  A    between atoms: _449  and  _450
REMARK  182  A    between atoms: _449  and  _452
REMARK  183  A    between atoms: _455  and  _457
REMARK  184  A    between atoms: _457  and  _458
REMARK  185  A    between atoms: _460  and  _462
REMARK  186  A    between atoms: _462  and  _463
REMARK  187  A    between atoms: _466  and  _468
REMARK  188  A    between atoms: _468  and  _469
REMARK  189  A    between atoms: _468  and  _471
REMARK  190  A    between atoms: _471  and  _472
REMARK  191  A    between atoms: _472  and  _473
REMARK  192  A    between atoms: _473  and  _474
REMARK  193  A    between atoms: _483  and  _485
REMARK  194  A    between atoms: _485  and  _486
REMARK  195  A    between atoms: _485  and  _488
REMARK  196  A    between atoms: _488  and  _489
REMARK  197  A    between atoms: _492  and  _494
REMARK  198  A    between atoms: _494  and  _495
REMARK  199  A    between atoms: _494  and  _497
REMARK  200  A    between atoms: _497  and  _498
REMARK  201  A    between atoms: _498  and  _499
REMARK  202  A    between atoms: _501  and  _503
REMARK  203  A    between atoms: _503  and  _504
REMARK  204  A    between atoms: _503  and  _506
REMARK  205  A    between atoms: _506  and  _507
REMARK  206  A    between atoms: _509  and  _511
REMARK  207  A    between atoms: _511  and  _512
REMARK  208  A    between atoms: _511  and  _514
REMARK  209  A    between atoms: _514  and  _515
REMARK  210  A    between atoms: _515  and  _516
REMARK  211  A    between atoms: _516  and  _517
REMARK  212  A    between atoms: _517  and  _518
REMARK  213  A    between atoms: _522  and  _524
REMARK  214  A    between atoms: _524  and  _525
REMARK  215  A    between atoms: _524  and  _527
REMARK  216  A    between atoms: _527  and  _528
REMARK  217  A    between atoms: _528  and  _529
REMARK  218  A    between atoms: _529  and  _530
REMARK  219  A    between atoms: _530  and  _531
REMARK  220  A    between atoms: _535  and  _537
REMARK  221  A    between atoms: _537  and  _538
REMARK  222  A    between atoms: _537  and  _540
REMARK  223  A    between atoms: _540  and  _541
REMARK  224  A    between atoms: _541  and  _542
REMARK  225  A    between atoms: _544  and  _546
REMARK  226  A    between atoms: _546  and  _547
REMARK  227  A    between atoms: _546  and  _549
REMARK  228  A    between atoms: _549  and  _550
REMARK  229  A    between atoms: _552  and  _554
REMARK  230  A    between atoms: _554  and  _555
REMARK  231  A    between atoms: _554  and  _557
REMARK  232  A    between atoms: _557  and  _558
REMARK  233  A    between atoms: _558  and  _559
REMARK  234  A    between atoms: _559  and  _560
REMARK  235  A    between atoms: _560  and  _561
REMARK  236  A    between atoms: _565  and  _567
REMARK  237  A    between atoms: _567  and  _568
REMARK  238  A    between atoms: _567  and  _570
REMARK  239  A    between atoms: _570  and  _571
REMARK  240  A    between atoms: _573  and  _575
REMARK  241  A    between atoms: _575  and  _576
REMARK  242  A    between atoms: _575  and  _578
REMARK  243  A    between atoms: _578  and  _579
REMARK  244  A    between atoms: _583  and  _584
REMARK  245  A    between atoms: _589  and  _591
REMARK  246  A    between atoms: _591  and  _592
REMARK  247  A    between atoms: _591  and  _594
REMARK  248  A    between atoms: _594  and  _595
REMARK  249  A    between atoms: _600  and  _601
REMARK  250  A    between atoms: _603  and  _605
REMARK  251  A    between atoms: _605  and  _606
REMARK  252  A    between atoms: _605  and  _608
REMARK  253  A    between atoms: _608  and  _609
REMARK                            x       y       z     vdW  Elec       q    Type
REMARK                         _______ _______ _______ _____ _____    ______ ____
ROOT
ATOM      1  CB  ASN A   1      51.173  35.572  24.751  0.00  0.00    +0.110 C 
ENDROOT
BRANCH   1   2
ATOM      2  CG  ASN A   1      51.472  34.231  25.364  0.00  0.00    +0.221 C 
ATOM      3  OD1 ASN A   1      52.312  34.127  26.259  0.00  0.00    -0.275 OA
ATOM      4  ND2 ASN A   1      50.892  33.181  24.802  0.00  0.00    -0.329 N 
ATOM      5 HD21 ASN A   1      51.141  32.221  25.114  0.00  0.00    +0.145 HD
ATOM      6 HD22 ASN A   1      50.188  33.317  24.049  0.00  0.00    +0.145 HD
ENDBRANCH   1   2
BRANCH   1   7
ATOM      7  CA  ASN A   1      52.438  36.300  24.307  0.00  0.00    +0.142 C 
BRANCH   7   8
ATOM      8  N   ASN A   1      52.096  37.617  23.810  0.00  0.00    -0.239 NA
ATOM      9  H   ASN A   1      51.096  37.850  23.648  0.00  0.00    +0.142 HD
ENDBRANCH   7   8
BRANCH   7  10
ATOM     10  C   ASN A   1      53.133  35.485  23.212  0.00  0.00    +0.225 C 
ATOM     11  O   ASN A   1      54.038  34.695  23.490  0.00  0.00    -0.287 OA
ENDBRANCH   7  10
ENDBRANCH   1   7
TORSDOF 4
REMARK  Name = ../refined-set-2016/1m83/1m83_pocket.pdb
REMARK  253 active torsions:
REMARK  status: ('A' for Active; 'I' for Inactive)
REMARK    1  A    between atoms: _1  and  _3
REMARK    2  A    between atoms: _3  and  _4
REMARK    3  A    between atoms: _3  and  _6
REMARK    4  A    between atoms: _6  and  _7
REMARK    5  A    between atoms: _9  and  _11
REMARK    6  A    between atoms: _11  and  _12
REMARK    7  A    between atoms: _14  and  _16
REMARK    8  A    between atoms: _16  and  _17
REMARK    9  A    between atoms: _16  and  _19
REMARK   10  A    between atoms: _19  and  _20
REMARK   11  A    between atoms: _23  and  _25
REMARK   12  A    between atoms: _25  and  _26
REMARK   13  A    between atoms: _25  and  _28
REMARK   14  A    between atoms: _28  and  _29
REMARK   15  A    between atoms: _29  and  _30
REMARK   16  A    between atoms: _36  and  _37
REMARK   17  A    between atoms: _42  and  _44
REMARK   18  A    between atoms: _44  and  _45
REMARK   19  A    between atoms: _44  and  _47
REMARK   20  A    between atoms: _47  and  _48
REMARK   21  A    between atoms: _50  and  _52
REMARK   22  A    between atoms: _52  and  _53
REMARK   23  A    between atoms: _55  and  _57
REMARK   24  A    between atoms: _57  and  _58
REMARK   25  A    between atoms: _57  and  _60
REMARK   26  A    between atoms: _63  and  _65
REMARK   27  A    between atoms: _65  and  _66
REMARK   28  A    between atoms: _65  and  _68
REMARK   29  A    between atoms: _68  and  _69
REMARK   30  A    between atoms: _72  and  _74
REMARK   31  A    between atoms: _74  and  _75
REMARK   32  A    between atoms: _74  and  _77
REMARK   33  A    between atoms: _77  and  _78
REMARK   34  A    between atoms: _81  and  _83
REMARK   35  A    between atoms: _83  and  _84
REMARK   36  A    between atoms: _83  and  _86
REMARK   37  A    between atoms: _86  and  _87
REMARK   38  A    between atoms: _90  and  _92
REMARK   39  A    between atoms: _92  and  _93
REMARK   40  A    between atoms: _95  and  _97
REMARK   41  A    between atoms: _97  and  _98
REMARK   42  A    between atoms: _97  and  _100
REMARK   43  A    between atoms: _100  and  _101
REMARK   44  A    between atoms: _106  and  _108
REMARK   45  A    between atoms: _108  and  _109
REMARK   46  A    between atoms: _108  and  _111
REMARK   47  A    between atoms: _111  and  _112
REMARK   48  A    between atoms: _117  and  _118
REMARK   49  A    between atoms: _120  and  _122
REMARK   50  A    between atoms: _122  and  _123
REMARK   51  A    between atoms: _122  and  _125
REMARK   52  A    between atoms: _125  and  _126
REMARK   53  A    between atoms: _129  and  _131
REMARK   54  A    between atoms: _131  and  _132
REMARK   55  A    between atoms: _134  and  _136
REMARK   56  A    between atoms: _136  and  _137
REMARK   57  A    between atoms: _140  and  _142
REMARK   58  A    between atoms: _142  and  _143
REMARK   59  A    between atoms: _142  and  _145
REMARK   60  A    between atoms: _145  and  _146
REMARK   61  A    between atoms: _149  and  _151
REMARK   62  A    between atoms: _151  and  _152
REMARK   63  A    between atoms: _151  and  _154
REMARK   64  A    between atoms: _154  and  _155
REMARK   65  A    between atoms: _155  and  _156
REMARK   66  A    between atoms: _156  and  _157
REMARK   67  A    between atoms: _166  and  _168
REMARK   68  A    between atoms: _168  and  _169
REMARK   69  A    between atoms: _168  and  _171
REMARK   70  A    between atoms: _171  and  _172
REMARK   71  A    between atoms: _172  and  _173
REMARK   72  A    between atoms: _178  and  _180
REMARK   73  A    between atoms: _180  and  _181
REMARK   74  A    between atoms: _180  and  _183
REMARK   75  A    between atoms: _183  and  _184
REMARK   76  A    between atoms: _190  and  _192
REMARK   77  A    between atoms: _192  and  _193
REMARK   78  A    between atoms: _192  and  _195
REMARK   79  A    between atoms: _197  and  _199
REMARK   80  A    between atoms: _199  and  _200
REMARK   81  A    between atoms: _199  and  _202
REMARK   82  A    between atoms: _205  and  _207
REMARK   83  A    between atoms: _207  and  _208
REMARK   84  A    between atoms: _207  and  _210
REMARK   85  A    between atoms: _210  and  _211
REMARK   86  A    between atoms: _216  and  _218
REMARK   87  A    between atoms: _218  and  _219
REMARK   88  A    between atoms: _222  and  _224
REMARK   89  A    between atoms: _224  and  _225
REMARK   90  A    between atoms: _224  and  _227
REMARK   91  A    between atoms: _227  and  _228
REMARK   92  A    between atoms: _231  and  _233
REMARK   93  A    between atoms: _233  and  _234
REMARK   94  A    between atoms: _233  and  _236
REMARK   95  A    between atoms: _239  and  _241
REMARK   96  A    between atoms: _241  and  _242
REMARK   97  A    between atoms: _241  and  _244
REMARK   98  A    between atoms: _244  and  _245
REMARK   99  A    between atoms: _245  and  _246
REMARK  100  A    between atoms: _251  and  _253
REMARK  101  A    between atoms: _253  and  _254
REMARK  102  A    between atoms: _253  and  _256
REMARK  103  A    between atoms: _256  and  _257
REMARK  104  A    between atoms: _260  and  _262
REMARK  105  A    between atoms: _262  and  _263
REMARK  106  A    between atoms: _262  and  _265
REMARK  107  A    between atoms: _265  and  _266
REMARK  108  A    between atoms: _271  and  _272
REMARK  109  A    between atoms: _274  and  _276
REMARK  110  A    between atoms: _276  and  _277
REMARK  111  A    between atoms: _276  and  _279
REMARK  112  A    between atoms: _279  and  _280
REMARK  113  A    between atoms: _280  and  _281
REMARK  114  A    between atoms: _286  and  _288
REMARK  115  A    between atoms: _288  and  _289
REMARK  116  A    between atoms: _288  and  _291
REMARK  117  A    between atoms: _291  and  _292
REMARK  118  A    between atoms: _292  and  _293
REMARK  119  A    between atoms: _293  and  _294
REMARK  120  A    between atoms: _294  and  _295
REMARK  121  A    between atoms: _299  and  _301
REMARK  122  A    between atoms: _301  and  _302
REMARK  123  A    between atoms: _301  and  _304
REMARK  124  A    between atoms: _304  and  _305
REMARK  125  A    between atoms: _310  and  _311
REMARK  126  A    between atoms: _313  and  _315
REMARK  127  A    between atoms: _315  and  _316
REMARK  128  A    between atoms: _315  and  _318
REMARK  129  A    between atoms: _318  and  _319
REMARK  130  A    between atoms: _319  and  _320
REMARK  131  A    between atoms: _322  and  _324
REMARK  132  A    between atoms: _324  and  _325
REMARK  133  A    between atoms: _324  and  _327
REMARK  134  A    between atoms: _331  and  _332
REMARK  135  A    between atoms: _337  and  _339
REMARK  136  A    between atoms: _339  and  _340
REMARK  137  A    between atoms: _339  and  _342
REMARK  138  A    between atoms: _345  and  _347
REMARK  139  A    between atoms: _347  and  _348
REMARK  140  A    between atoms: _350  and  _352
REMARK  141  A    between atoms: _352  and  _353
REMARK  142  A    between atoms: _352  and  _355
REMARK  143  A    between atoms: _355  and  _356
REMARK  144  A    between atoms: _356  and  _357
REMARK  145  A    between atoms: _360  and  _362
REMARK  146  A    between atoms: _362  and  _363
REMARK  147  A    between atoms: _362  and  _365
REMARK  148  A    between atoms: _365  and  _366
REMARK  149  A    between atoms: _369  and  _371
REMARK  150  A    between atoms: _371  and  _372
REMARK  151  A    between atoms: _371  and  _374
REMARK  152  A    between atoms: _374  and  _375
REMARK  153  A    between atoms: _375  and  _376
REMARK  154  A    between atoms: _381  and  _383
REMARK  155  A    between atoms: _383  and  _384
REMARK  156  A    between atoms: _383  and  _386
REMARK  157  A    between atoms: _386  and  _387
REMARK  158  A    between atoms: _387  and  _388
REMARK  159  A    between atoms: _388  and  _389
REMARK  160  A    between atoms: _389  and  _390
REMARK  161  A    between atoms: _394  and  _396
REMARK  162  A    between atoms: _396  and  _397
REMARK  163  A    between atoms: _396  and  _399
REMARK  164  A    between atoms: _399  and  _400
REMARK  165  A    between atoms: _405  and  _407
REMARK  166  A    between atoms: _407  and  _408
REMARK  167  A    between atoms: _407  and  _410
REMARK  168  A    between atoms: _410  and  _411
REMARK  169  A    between atoms: _414  and  _416
REMARK  170  A    between atoms: _416  and  _417
REMARK  171  A    between atoms: _416  and  _419
REMARK  172  A    between atoms: _419  and  _420
REMARK  173  A    between atoms: _420  and  _421
REMARK  174  A    between atoms: _421  and  _422
REMARK  175  A    between atoms: _431  and  _433
REMARK  176  A    between atoms: _433  and  _434
REMARK  177  A    between atoms: _433  and  _436
REMARK  178  A    between atoms: _436  and  _437
REMARK  179  A    between atoms: _441  and  _442
REMARK  180  A    between atoms: _447  and  _449
REMARK  181  A    between atoms: _449  and  _450
REMARK  182  A    between atoms: _449  and  _452
REMARK  183  A    between atoms: _455  and  _457
REMARK  184  A    between atoms: _457  and  _458
REMARK  185  A    between atoms: _460  and  _462
REMARK  186  A    between atoms: _462  and  _463
REMARK  187  A    between atoms: _466  and  _468
REMARK  188  A    between atoms: _468  and  _469
REMARK  189  A    between atoms: _468  and  _471
REMARK  190  A    between atoms: _471  and  _472
REMARK  191  A    between atoms: _472  and  _473
REMARK  192  A    between atoms: _473  and  _474
REMARK  193  A    between atoms: _483  and  _485
REMARK  194  A    between atoms: _485  and  _486
REMARK  195  A    between atoms: _485  and  _488
REMARK  196  A    between atoms: _488  and  _489
REMARK  197  A    between atoms: _492  and  _494
REMARK  198  A    between atoms: _494  and  _495
REMARK  199  A    between atoms: _494  and  _497
REMARK  200  A    between atoms: _497  and  _498
REMARK  201  A    between atoms: _498  and  _499
REMARK  202  A    between atoms: _501  and  _503
REMARK  203  A    between atoms: _503  and  _504
REMARK  204  A    between atoms: _503  and  _506
REMARK  205  A    between atoms: _506  and  _507
REMARK  206  A    between atoms: _509  and  _511
REMARK  207  A    between atoms: _511  and  _512
REMARK  208  A    between atoms: _511  and  _514
REMARK  209  A    between atoms: _514  and  _515
REMARK  210  A    between atoms: _515  and  _516
REMARK  211  A    between atoms: _516  and  _517
REMARK  212  A    between atoms: _517  and  _518
REMARK  213  A    between atoms: _522  and  _524
REMARK  214  A    between atoms: _524  and  _525
REMARK  215  A    between atoms: _524  and  _527
REMARK  216  A    between atoms: _527  and  _528
REMARK  217  A    between atoms: _528  and  _529
REMARK  218  A    between atoms: _529  and  _530
REMARK  219  A    between atoms: _530  and  _531
REMARK  220  A    between atoms: _535  and  _537
REMARK  221  A    between atoms: _537  and  _538
REMARK  222  A    between atoms: _537  and  _540
REMARK  223  A    between atoms: _540  and  _541
REMARK  224  A    between atoms: _541  and  _542
REMARK  225  A    between atoms: _544  and  _546
REMARK  226  A    between atoms: _546  and  _547
REMARK  227  A    between atoms: _546  and  _549
REMARK  228  A    between atoms: _549  and  _550
REMARK  229  A    between atoms: _552  and  _554
REMARK  230  A    between atoms: _554  and  _555
REMARK  231  A    between atoms: _554  and  _557
REMARK  232  A    between atoms: _557  and  _558
REMARK  233  A    between atoms: _558  and  _559
REMARK  234  A    between atoms: _559  and  _560
REMARK  235  A    between atoms: _560  and  _561
REMARK  236  A    between atoms: _565  and  _567
REMARK  237  A    between atoms: _567  and  _568
REMARK  238  A    between atoms: _567  and  _570
REMARK  239  A    between atoms: _570  and  _571
REMARK  240  A    between atoms: _573  and  _575
REMARK  241  A    between atoms: _575  and  _576
REMARK  242  A    between atoms: _575  and  _578
REMARK  243  A    between atoms: _578  and  _579
REMARK  244  A    between atoms: _583  and  _584
REMARK  245  A    between atoms: _589  and  _591
REMARK  246  A    between atoms: _591  and  _592
REMARK  247  A    between atoms: _591  and  _594
REMARK  248  A    between atoms: _594  and  _595
REMARK  249  A    between atoms: _600  and  _601
REMARK  250  A    between atoms: _603  and  _605
REMARK  251  A    between atoms: _605  and  _606
REMARK  252  A    between atoms: _605  and  _608
REMARK  253  A    between atoms: _608  and  _609
REMARK                            x       y       z     vdW  Elec       q    Type
REMARK                         _______ _______ _______ _____ _____    ______ ____
ROOT
ATOM      1 MG   UNL     1      49.633  23.901  38.217  0.00  0.00    +0.000 Mg
ATOM      2  O   UNL     1      48.993  23.180  40.302  0.00  0.00    +0.000 OA
ENDROOT
TORSDOF 0
REMARK  Name = ../refined-set-2016/1m83/1m83_pocket.pdb
REMARK  253 active torsions:
REMARK  status: ('A' for Active; 'I' for Inactive)
REMARK    1  A    between atoms: _1  and  _3
REMARK    2  A    between atoms: _3  and  _4
REMARK    3  A    between atoms: _3  and  _6
REMARK    4  A    between atoms: _6  and  _7
REMARK    5  A    between atoms: _9  and  _11
REMARK    6  A    between atoms: _11  and  _12
REMARK    7  A    between atoms: _14  and  _16
REMARK    8  A    between atoms: _16  and  _17
REMARK    9  A    between atoms: _16  and  _19
REMARK   10  A    between atoms: _19  and  _20
REMARK   11  A    between atoms: _23  and  _25
REMARK   12  A    between atoms: _25  and  _26
REMARK   13  A    between atoms: _25  and  _28
REMARK   14  A    between atoms: _28  and  _29
REMARK   15  A    between atoms: _29  and  _30
REMARK   16  A    between atoms: _36  and  _37
REMARK   17  A    between atoms: _42  and  _44
REMARK   18  A    between atoms: _44  and  _45
REMARK   19  A    between atoms: _44  and  _47
REMARK   20  A    between atoms: _47  and  _48
REMARK   21  A    between atoms: _50  and  _52
REMARK   22  A    between atoms: _52  and  _53
REMARK   23  A    between atoms: _55  and  _57
REMARK   24  A    between atoms: _57  and  _58
REMARK   25  A    between atoms: _57  and  _60
REMARK   26  A    between atoms: _63  and  _65
REMARK   27  A    between atoms: _65  and  _66
REMARK   28  A    between atoms: _65  and  _68
REMARK   29  A    between atoms: _68  and  _69
REMARK   30  A    between atoms: _72  and  _74
REMARK   31  A    between atoms: _74  and  _75
REMARK   32  A    between atoms: _74  and  _77
REMARK   33  A    between atoms: _77  and  _78
REMARK   34  A    between atoms: _81  and  _83
REMARK   35  A    between atoms: _83  and  _84
REMARK   36  A    between atoms: _83  and  _86
REMARK   37  A    between atoms: _86  and  _87
REMARK   38  A    between atoms: _90  and  _92
REMARK   39  A    between atoms: _92  and  _93
REMARK   40  A    between atoms: _95  and  _97
REMARK   41  A    between atoms: _97  and  _98
REMARK   42  A    between atoms: _97  and  _100
REMARK   43  A    between atoms: _100  and  _101
REMARK   44  A    between atoms: _106  and  _108
REMARK   45  A    between atoms: _108  and  _109
REMARK   46  A    between atoms: _108  and  _111
REMARK   47  A    between atoms: _111  and  _112
REMARK   48  A    between atoms: _117  and  _118
REMARK   49  A    between atoms: _120  and  _122
REMARK   50  A    between atoms: _122  and  _123
REMARK   51  A    between atoms: _122  and  _125
REMARK   52  A    between atoms: _125  and  _126
REMARK   53  A    between atoms: _129  and  _131
REMARK   54  A    between atoms: _131  and  _132
REMARK   55  A    between atoms: _134  and  _136
REMARK   56  A    between atoms: _136  and  _137
REMARK   57  A    between atoms: _140  and  _142
REMARK   58  A    between atoms: _142  and  _143
REMARK   59  A    between atoms: _142  and  _145
REMARK   60  A    between atoms: _145  and  _146
REMARK   61  A    between atoms: _149  and  _151
REMARK   62  A    between atoms: _151  and  _152
REMARK   63  A    between atoms: _151  and  _154
REMARK   64  A    between atoms: _154  and  _155
REMARK   65  A    between atoms: _155  and  _156
REMARK   66  A    between atoms: _156  and  _157
REMARK   67  A    between atoms: _166  and  _168
REMARK   68  A    between atoms: _168  and  _169
REMARK   69  A    between atoms: _168  and  _171
REMARK   70  A    between atoms: _171  and  _172
REMARK   71  A    between atoms: _172  and  _173
REMARK   72  A    between atoms: _178  and  _180
REMARK   73  A    between atoms: _180  and  _181
REMARK   74  A    between atoms: _180  and  _183
REMARK   75  A    between atoms: _183  and  _184
REMARK   76  A    between atoms: _190  and  _192
REMARK   77  A    between atoms: _192  and  _193
REMARK   78  A    between atoms: _192  and  _195
REMARK   79  A    between atoms: _197  and  _199
REMARK   80  A    between atoms: _199  and  _200
REMARK   81  A    between atoms: _199  and  _202
REMARK   82  A    between atoms: _205  and  _207
REMARK   83  A    between atoms: _207  and  _208
REMARK   84  A    between atoms: _207  and  _210
REMARK   85  A    between atoms: _210  and  _211
REMARK   86  A    between atoms: _216  and  _218
REMARK   87  A    between atoms: _218  and  _219
REMARK   88  A    between atoms: _222  and  _224
REMARK   89  A    between atoms: _224  and  _225
REMARK   90  A    between atoms: _224  and  _227
REMARK   91  A    between atoms: _227  and  _228
REMARK   92  A    between atoms: _231  and  _233
REMARK   93  A    between atoms: _233  and  _234
REMARK   94  A    between atoms: _233  and  _236
REMARK   95  A    between atoms: _239  and  _241
REMARK   96  A    between atoms: _241  and  _242
REMARK   97  A    between atoms: _241  and  _244
REMARK   98  A    between atoms: _244  and  _245
REMARK   99  A    between atoms: _245  and  _246
REMARK  100  A    between atoms: _251  and  _253
REMARK  101  A    between atoms: _253  and  _254
REMARK  102  A    between atoms: _253  and  _256
REMARK  103  A    between atoms: _256  and  _257
REMARK  104  A    between atoms: _260  and  _262
REMARK  105  A    between atoms: _262  and  _263
REMARK  106  A    between atoms: _262  and  _265
REMARK  107  A    between atoms: _265  and  _266
REMARK  108  A    between atoms: _271  and  _272
REMARK  109  A    between atoms: _274  and  _276
REMARK  110  A    between atoms: _276  and  _277
REMARK  111  A    between atoms: _276  and  _279
REMARK  112  A    between atoms: _279  and  _280
REMARK  113  A    between atoms: _280  and  _281
REMARK  114  A    between atoms: _286  and  _288
REMARK  115  A    between atoms: _288  and  _289
REMARK  116  A    between atoms: _288  and  _291
REMARK  117  A    between atoms: _291  and  _292
REMARK  118  A    between atoms: _292  and  _293
REMARK  119  A    between atoms: _293  and  _294
REMARK  120  A    between atoms: _294  and  _295
REMARK  121  A    between atoms: _299  and  _301
REMARK  122  A    between atoms: _301  and  _302
REMARK  123  A    between atoms: _301  and  _304
REMARK  124  A    between atoms: _304  and  _305
REMARK  125  A    between atoms: _310  and  _311
REMARK  126  A    between atoms: _313  and  _315
REMARK  127  A    between atoms: _315  and  _316
REMARK  128  A    between atoms: _315  and  _318
REMARK  129  A    between atoms: _318  and  _319
REMARK  130  A    between atoms: _319  and  _320
REMARK  131  A    between atoms: _322  and  _324
REMARK  132  A    between atoms: _324  and  _325
REMARK  133  A    between atoms: _324  and  _327
REMARK  134  A    between atoms: _331  and  _332
REMARK  135  A    between atoms: _337  and  _339
REMARK  136  A    between atoms: _339  and  _340
REMARK  137  A    between atoms: _339  and  _342
REMARK  138  A    between atoms: _345  and  _347
REMARK  139  A    between atoms: _347  and  _348
REMARK  140  A    between atoms: _350  and  _352
REMARK  141  A    between atoms: _352  and  _353
REMARK  142  A    between atoms: _352  and  _355
REMARK  143  A    between atoms: _355  and  _356
REMARK  144  A    between atoms: _356  and  _357
REMARK  145  A    between atoms: _360  and  _362
REMARK  146  A    between atoms: _362  and  _363
REMARK  147  A    between atoms: _362  and  _365
REMARK  148  A    between atoms: _365  and  _366
REMARK  149  A    between atoms: _369  and  _371
REMARK  150  A    between atoms: _371  and  _372
REMARK  151  A    between atoms: _371  and  _374
REMARK  152  A    between atoms: _374  and  _375
REMARK  153  A    between atoms: _375  and  _376
REMARK  154  A    between atoms: _381  and  _383
REMARK  155  A    between atoms: _383  and  _384
REMARK  156  A    between atoms: _383  and  _386
REMARK  157  A    between atoms: _386  and  _387
REMARK  158  A    between atoms: _387  and  _388
REMARK  159  A    between atoms: _388  and  _389
REMARK  160  A    between atoms: _389  and  _390
REMARK  161  A    between atoms: _394  and  _396
REMARK  162  A    between atoms: _396  and  _397
REMARK  163  A    between atoms: _396  and  _399
REMARK  164  A    between atoms: _399  and  _400
REMARK  165  A    between atoms: _405  and  _407
REMARK  166  A    between atoms: _407  and  _408
REMARK  167  A    between atoms: _407  and  _410
REMARK  168  A    between atoms: _410  and  _411
REMARK  169  A    between atoms: _414  and  _416
REMARK  170  A    between atoms: _416  and  _417
REMARK  171  A    between atoms: _416  and  _419
REMARK  172  A    between atoms: _419  and  _420
REMARK  173  A    between atoms: _420  and  _421
REMARK  174  A    between atoms: _421  and  _422
REMARK  175  A    between atoms: _431  and  _433
REMARK  176  A    between atoms: _433  and  _434
REMARK  177  A    between atoms: _433  and  _436
REMARK  178  A    between atoms: _436  and  _437
REMARK  179  A    between atoms: _441  and  _442
REMARK  180  A    between atoms: _447  and  _449
REMARK  181  A    between atoms: _449  and  _450
REMARK  182  A    between atoms: _449  and  _452
REMARK  183  A    between atoms: _455  and  _457
REMARK  184  A    between atoms: _457  and  _458
REMARK  185  A    between atoms: _460  and  _462
REMARK  186  A    between atoms: _462  and  _463
REMARK  187  A    between atoms: _466  and  _468
REMARK  188  A    between atoms: _468  and  _469
REMARK  189  A    between atoms: _468  and  _471
REMARK  190  A    between atoms: _471  and  _472
REMARK  191  A    between atoms: _472  and  _473
REMARK  192  A    between atoms: _473  and  _474
REMARK  193  A    between atoms: _483  and  _485
REMARK  194  A    between atoms: _485  and  _486
REMARK  195  A    between atoms: _485  and  _488
REMARK  196  A    between atoms: _488  and  _489
REMARK  197  A    between atoms: _492  and  _494
REMARK  198  A    between atoms: _494  and  _495
REMARK  199  A    between atoms: _494  and  _497
REMARK  200  A    between atoms: _497  and  _498
REMARK  201  A    between atoms: _498  and  _499
REMARK  202  A    between atoms: _501  and  _503
REMARK  203  A    between atoms: _503  and  _504
REMARK  204  A    between atoms: _503  and  _506
REMARK  205  A    between atoms: _506  and  _507
REMARK  206  A    between atoms: _509  and  _511
REMARK  207  A    between atoms: _511  and  _512
REMARK  208  A    between atoms: _511  and  _514
REMARK  209  A    between atoms: _514  and  _515
REMARK  210  A    between atoms: _515  and  _516
REMARK  211  A    between atoms: _516  and  _517
REMARK  212  A    between atoms: _517  and  _518
REMARK  213  A    between atoms: _522  and  _524
REMARK  214  A    between atoms: _524  and  _525
REMARK  215  A    between atoms: _524  and  _527
REMARK  216  A    between atoms: _527  and  _528
REMARK  217  A    between atoms: _528  and  _529
REMARK  218  A    between atoms: _529  and  _530
REMARK  219  A    between atoms: _530  and  _531
REMARK  220  A    between atoms: _535  and  _537
REMARK  221  A    between atoms: _537  and  _538
REMARK  222  A    between atoms: _537  and  _540
REMARK  223  A    between atoms: _540  and  _541
REMARK  224  A    between atoms: _541  and  _542
REMARK  225  A    between atoms: _544  and  _546
REMARK  226  A    between atoms: _546  and  _547
REMARK  227  A    between atoms: _546  and  _549
REMARK  228  A    between atoms: _549  and  _550
REMARK  229  A    between atoms: _552  and  _554
REMARK  230  A    between atoms: _554  and  _555
REMARK  231  A    between atoms: _554  and  _557
REMARK  232  A    between atoms: _557  and  _558
REMARK  233  A    between atoms: _558  and  _559
REMARK  234  A    between atoms: _559  and  _560
REMARK  235  A    between atoms: _560  and  _561
REMARK  236  A    between atoms: _565  and  _567
REMARK  237  A    between atoms: _567  and  _568
REMARK  238  A    between atoms: _567  and  _570
REMARK  239  A    between atoms: _570  and  _571
REMARK  240  A    between atoms: _573  and  _575
REMARK  241  A    between atoms: _575  and  _576
REMARK  242  A    between atoms: _575  and  _578
REMARK  243  A    between atoms: _578  and  _579
REMARK  244  A    between atoms: _583  and  _584
REMARK  245  A    between atoms: _589  and  _591
REMARK  246  A    between atoms: _591  and  _592
REMARK  247  A    between atoms: _591  and  _594
REMARK  248  A    between atoms: _594  and  _595
REMARK  249  A    between atoms: _600  and  _601
REMARK  250  A    between atoms: _603  and  _605
REMARK  251  A    between atoms: _605  and  _606
REMARK  252  A    between atoms: _605  and  _608
REMARK  253  A    between atoms: _608  and  _609
REMARK                            x       y       z     vdW  Elec       q    Type
REMARK                         _______ _______ _______ _____ _____    ______ ____
ROOT
ATOM      1  O   HOH     1      46.120  27.009  29.477  0.00  0.00    +0.000 OA
ENDROOT
TORSDOF 0
REMARK  Name = ../refined-set-2016/1m83/1m83_pocket.pdb
REMARK  253 active torsions:
REMARK  status: ('A' for Active; 'I' for Inactive)
REMARK    1  A    between atoms: _1  and  _3
REMARK    2  A    between atoms: _3  and  _4
REMARK    3  A    between atoms: _3  and  _6
REMARK    4  A    between atoms: _6  and  _7
REMARK    5  A    between atoms: _9  and  _11
REMARK    6  A    between atoms: _11  and  _12
REMARK    7  A    between atoms: _14  and  _16
REMARK    8  A    between atoms: _16  and  _17
REMARK    9  A    between atoms: _16  and  _19
REMARK   10  A    between atoms: _19  and  _20
REMARK   11  A    between atoms: _23  and  _25
REMARK   12  A    between atoms: _25  and  _26
REMARK   13  A    between atoms: _25  and  _28
REMARK   14  A    between atoms: _28  and  _29
REMARK   15  A    between atoms: _29  and  _30
REMARK   16  A    between atoms: _36  and  _37
REMARK   17  A    between atoms: _42  and  _44
REMARK   18  A    between atoms: _44  and  _45
REMARK   19  A    between atoms: _44  and  _47
REMARK   20  A    between atoms: _47  and  _48
REMARK   21  A    between atoms: _50  and  _52
REMARK   22  A    between atoms: _52  and  _53
REMARK   23  A    between atoms: _55  and  _57
REMARK   24  A    between atoms: _57  and  _58
REMARK   25  A    between atoms: _57  and  _60
REMARK   26  A    between atoms: _63  and  _65
REMARK   27  A    between atoms: _65  and  _66
REMARK   28  A    between atoms: _65  and  _68
REMARK   29  A    between atoms: _68  and  _69
REMARK   30  A    between atoms: _72  and  _74
REMARK   31  A    between atoms: _74  and  _75
REMARK   32  A    between atoms: _74  and  _77
REMARK   33  A    between atoms: _77  and  _78
REMARK   34  A    between atoms: _81  and  _83
REMARK   35  A    between atoms: _83  and  _84
REMARK   36  A    between atoms: _83  and  _86
REMARK   37  A    between atoms: _86  and  _87
REMARK   38  A    between atoms: _90  and  _92
REMARK   39  A    between atoms: _92  and  _93
REMARK   40  A    between atoms: _95  and  _97
REMARK   41  A    between atoms: _97  and  _98
REMARK   42  A    between atoms: _97  and  _100
REMARK   43  A    between atoms: _100  and  _101
REMARK   44  A    between atoms: _106  and  _108
REMARK   45  A    between atoms: _108  and  _109
REMARK   46  A    between atoms: _108  and  _111
REMARK   47  A    between atoms: _111  and  _112
REMARK   48  A    between atoms: _117  and  _118
REMARK   49  A    between atoms: _120  and  _122
REMARK   50  A    between atoms: _122  and  _123
REMARK   51  A    between atoms: _122  and  _125
REMARK   52  A    between atoms: _125  and  _126
REMARK   53  A    between atoms: _129  and  _131
REMARK   54  A    between atoms: _131  and  _132
REMARK   55  A    between atoms: _134  and  _136
REMARK   56  A    between atoms: _136  and  _137
REMARK   57  A    between atoms: _140  and  _142
REMARK   58  A    between atoms: _142  and  _143
REMARK   59  A    between atoms: _142  and  _145
REMARK   60  A    between atoms: _145  and  _146
REMARK   61  A    between atoms: _149  and  _151
REMARK   62  A    between atoms: _151  and  _152
REMARK   63  A    between atoms: _151  and  _154
REMARK   64  A    between atoms: _154  and  _155
REMARK   65  A    between atoms: _155  and  _156
REMARK   66  A    between atoms: _156  and  _157
REMARK   67  A    between atoms: _166  and  _168
REMARK   68  A    between atoms: _168  and  _169
REMARK   69  A    between atoms: _168  and  _171
REMARK   70  A    between atoms: _171  and  _172
REMARK   71  A    between atoms: _172  and  _173
REMARK   72  A    between atoms: _178  and  _180
REMARK   73  A    between atoms: _180  and  _181
REMARK   74  A    between atoms: _180  and  _183
REMARK   75  A    between atoms: _183  and  _184
REMARK   76  A    between atoms: _190  and  _192
REMARK   77  A    between atoms: _192  and  _193
REMARK   78  A    between atoms: _192  and  _195
REMARK   79  A    between atoms: _197  and  _199
REMARK   80  A    between atoms: _199  and  _200
REMARK   81  A    between atoms: _199  and  _202
REMARK   82  A    between atoms: _205  and  _207
REMARK   83  A    between atoms: _207  and  _208
REMARK   84  A    between atoms: _207  and  _210
REMARK   85  A    between atoms: _210  and  _211
REMARK   86  A    between atoms: _216  and  _218
REMARK   87  A    between atoms: _218  and  _219
REMARK   88  A    between atoms: _222  and  _224
REMARK   89  A    between atoms: _224  and  _225
REMARK   90  A    between atoms: _224  and  _227
REMARK   91  A    between atoms: _227  and  _228
REMARK   92  A    between atoms: _231  and  _233
REMARK   93  A    between atoms: _233  and  _234
REMARK   94  A    between atoms: _233  and  _236
REMARK   95  A    between atoms: _239  and  _241
REMARK   96  A    between atoms: _241  and  _242
REMARK   97  A    between atoms: _241  and  _244
REMARK   98  A    between atoms: _244  and  _245
REMARK   99  A    between atoms: _245  and  _246
REMARK  100  A    between atoms: _251  and  _253
REMARK  101  A    between atoms: _253  and  _254
REMARK  102  A    between atoms: _253  and  _256
REMARK  103  A    between atoms: _256  and  _257
REMARK  104  A    between atoms: _260  and  _262
REMARK  105  A    between atoms: _262  and  _263
REMARK  106  A    between atoms: _262  and  _265
REMARK  107  A    between atoms: _265  and  _266
REMARK  108  A    between atoms: _271  and  _272
REMARK  109  A    between atoms: _274  and  _276
REMARK  110  A    between atoms: _276  and  _277
REMARK  111  A    between atoms: _276  and  _279
REMARK  112  A    between atoms: _279  and  _280
REMARK  113  A    between atoms: _280  and  _281
REMARK  114  A    between atoms: _286  and  _288
REMARK  115  A    between atoms: _288  and  _289
REMARK  116  A    between atoms: _288  and  _291
REMARK  117  A    between atoms: _291  and  _292
REMARK  118  A    between atoms: _292  and  _293
REMARK  119  A    between atoms: _293  and  _294
REMARK  120  A    between atoms: _294  and  _295
REMARK  121  A    between atoms: _299  and  _301
REMARK  122  A    between atoms: _301  and  _302
REMARK  123  A    between atoms: _301  and  _304
REMARK  124  A    between atoms: _304  and  _305
REMARK  125  A    between atoms: _310  and  _311
REMARK  126  A    between atoms: _313  and  _315
REMARK  127  A    between atoms: _315  and  _316
REMARK  128  A    between atoms: _315  and  _318
REMARK  129  A    between atoms: _318  and  _319
REMARK  130  A    between atoms: _319  and  _320
REMARK  131  A    between atoms: _322  and  _324
REMARK  132  A    between atoms: _324  and  _325
REMARK  133  A    between atoms: _324  and  _327
REMARK  134  A    between atoms: _331  and  _332
REMARK  135  A    between atoms: _337  and  _339
REMARK  136  A    between atoms: _339  and  _340
REMARK  137  A    between atoms: _339  and  _342
REMARK  138  A    between atoms: _345  and  _347
REMARK  139  A    between atoms: _347  and  _348
REMARK  140  A    between atoms: _350  and  _352
REMARK  141  A    between atoms: _352  and  _353
REMARK  142  A    between atoms: _352  and  _355
REMARK  143  A    between atoms: _355  and  _356
REMARK  144  A    between atoms: _356  and  _357
REMARK  145  A    between atoms: _360  and  _362
REMARK  146  A    between atoms: _362  and  _363
REMARK  147  A    between atoms: _362  and  _365
REMARK  148  A    between atoms: _365  and  _366
REMARK  149  A    between atoms: _369  and  _371
REMARK  150  A    between atoms: _371  and  _372
REMARK  151  A    between atoms: _371  and  _374
REMARK  152  A    between atoms: _374  and  _375
REMARK  153  A    between atoms: _375  and  _376
REMARK  154  A    between atoms: _381  and  _383
REMARK  155  A    between atoms: _383  and  _384
REMARK  156  A    between atoms: _383  and  _386
REMARK  157  A    between atoms: _386  and  _387
REMARK  158  A    between atoms: _387  and  _388
REMARK  159  A    between atoms: _388  and  _389
REMARK  160  A    between atoms: _389  and  _390
REMARK  161  A    between atoms: _394  and  _396
REMARK  162  A    between atoms: _396  and  _397
REMARK  163  A    between atoms: _396  and  _399
REMARK  164  A    between atoms: _399  and  _400
REMARK  165  A    between atoms: _405  and  _407
REMARK  166  A    between atoms: _407  and  _408
REMARK  167  A    between atoms: _407  and  _410
REMARK  168  A    between atoms: _410  and  _411
REMARK  169  A    between atoms: _414  and  _416
REMARK  170  A    between atoms: _416  and  _417
REMARK  171  A    between atoms: _416  and  _419
REMARK  172  A    between atoms: _419  and  _420
REMARK  173  A    between atoms: _420  and  _421
REMARK  174  A    between atoms: _421  and  _422
REMARK  175  A    between atoms: _431  and  _433
REMARK  176  A    between atoms: _433  and  _434
REMARK  177  A    between atoms: _433  and  _436
REMARK  178  A    between atoms: _436  and  _437
REMARK  179  A    between atoms: _441  and  _442
REMARK  180  A    between atoms: _447  and  _449
REMARK  181  A    between atoms: _449  and  _450
REMARK  182  A    between atoms: _449  and  _452
REMARK  183  A    between atoms: _455  and  _457
REMARK  184  A    between atoms: _457  and  _458
REMARK  185  A    between atoms: _460  and  _462
REMARK  186  A    between atoms: _462  and  _463
REMARK  187  A    between atoms: _466  and  _468
REMARK  188  A    between atoms: _468  and  _469
REMARK  189  A    between atoms: _468  and  _471
REMARK  190  A    between atoms: _471  and  _472
REMARK  191  A    between atoms: _472  and  _473
REMARK  192  A    between atoms: _473  and  _474
REMARK  193  A    between atoms: _483  and  _485
REMARK  194  A    between atoms: _485  and  _486
REMARK  195  A    between atoms: _485  and  _488
REMARK  196  A    between atoms: _488  and  _489
REMARK  197  A    between atoms: _492  and  _494
REMARK  198  A    between atoms: _494  and  _495
REMARK  199  A    between atoms: _494  and  _497
REMARK  200  A    between atoms: _497  and  _498
REMARK  201  A    between atoms: _498  and  _499
REMARK  202  A    between atoms: _501  and  _503
REMARK  203  A    between atoms: _503  and  _504
REMARK  204  A    between atoms: _503  and  _506
REMARK  205  A    between atoms: _506  and  _507
REMARK  206  A    between atoms: _509  and  _511
REMARK  207  A    between atoms: _511  and  _512
REMARK  208  A    between atoms: _511  and  _514
REMARK  209  A    between atoms: _514  and  _515
REMARK  210  A    between atoms: _515  and  _516
REMARK  211  A    between atoms: _516  and  _517
REMARK  212  A    between atoms: _517  and  _518
REMARK  213  A    between atoms: _522  and  _524
REMARK  214  A    between atoms: _524  and  _525
REMARK  215  A    between atoms: _524  and  _527
REMARK  216  A    between atoms: _527  and  _528
REMARK  217  A    between atoms: _528  and  _529
REMARK  218  A    between atoms: _529  and  _530
REMARK  219  A    between atoms: _530  and  _531
REMARK  220  A    between atoms: _535  and  _537
REMARK  221  A    between atoms: _537  and  _538
REMARK  222  A    between atoms: _537  and  _540
REMARK  223  A    between atoms: _540  and  _541
REMARK  224  A    between atoms: _541  and  _542
REMARK  225  A    between atoms: _544  and  _546
REMARK  226  A    between atoms: _546  and  _547
REMARK  227  A    between atoms: _546  and  _549
REMARK  228  A    between atoms: _549  and  _550
REMARK  229  A    between atoms: _552  and  _554
REMARK  230  A    between atoms: _554  and  _555
REMARK  231  A    between atoms: _554  and  _557
REMARK  232  A    between atoms: _557  and  _558
REMARK  233  A    between atoms: _558  and  _559
REMARK  234  A    between atoms: _559  and  _560
REMARK  235  A    between atoms: _560  and  _561
REMARK  236  A    between atoms: _565  and  _567
REMARK  237  A    between atoms: _567  and  _568
REMARK  238  A    between atoms: _567  and  _570
REMARK  239  A    between atoms: _570  and  _571
REMARK  240  A    between atoms: _573  and  _575
REMARK  241  A    between atoms: _575  and  _576
REMARK  242  A    between atoms: _575  and  _578
REMARK  243  A    between atoms: _578  and  _579
REMARK  244  A    between atoms: _583  and  _584
REMARK  245  A    between atoms: _589  and  _591
REMARK  246  A    between atoms: _591  and  _592
REMARK  247  A    between atoms: _591  and  _594
REMARK  248  A    between atoms: _594  and  _595
REMARK  249  A    between atoms: _600  and  _601
REMARK  250  A    between atoms: _603  and  _605
REMARK  251  A    between atoms: _605  and  _606
REMARK  252  A    between atoms: _605  and  _608
REMARK  253  A    between atoms: _608  and  _609
REMARK                            x       y       z     vdW  Elec       q    Type
REMARK                         _______ _______ _______ _____ _____    ______ ____
ROOT
ATOM      1  O   HOH     1      51.820  24.463  31.329  0.00  0.00    +0.000 OA
ENDROOT
TORSDOF 0
REMARK  Name = ../refined-set-2016/1m83/1m83_pocket.pdb
REMARK  253 active torsions:
REMARK  status: ('A' for Active; 'I' for Inactive)
REMARK    1  A    between atoms: _1  and  _3
REMARK    2  A    between atoms: _3  and  _4
REMARK    3  A    between atoms: _3  and  _6
REMARK    4  A    between atoms: _6  and  _7
REMARK    5  A    between atoms: _9  and  _11
REMARK    6  A    between atoms: _11  and  _12
REMARK    7  A    between atoms: _14  and  _16
REMARK    8  A    between atoms: _16  and  _17
REMARK    9  A    between atoms: _16  and  _19
REMARK   10  A    between atoms: _19  and  _20
REMARK   11  A    between atoms: _23  and  _25
REMARK   12  A    between atoms: _25  and  _26
REMARK   13  A    between atoms: _25  and  _28
REMARK   14  A    between atoms: _28  and  _29
REMARK   15  A    between atoms: _29  and  _30
REMARK   16  A    between atoms: _36  and  _37
REMARK   17  A    between atoms: _42  and  _44
REMARK   18  A    between atoms: _44  and  _45
REMARK   19  A    between atoms: _44  and  _47
REMARK   20  A    between atoms: _47  and  _48
REMARK   21  A    between atoms: _50  and  _52
REMARK   22  A    between atoms: _52  and  _53
REMARK   23  A    between atoms: _55  and  _57
REMARK   24  A    between atoms: _57  and  _58
REMARK   25  A    between atoms: _57  and  _60
REMARK   26  A    between atoms: _63  and  _65
REMARK   27  A    between atoms: _65  and  _66
REMARK   28  A    between atoms: _65  and  _68
REMARK   29  A    between atoms: _68  and  _69
REMARK   30  A    between atoms: _72  and  _74
REMARK   31  A    between atoms: _74  and  _75
REMARK   32  A    between atoms: _74  and  _77
REMARK   33  A    between atoms: _77  and  _78
REMARK   34  A    between atoms: _81  and  _83
REMARK   35  A    between atoms: _83  and  _84
REMARK   36  A    between atoms: _83  and  _86
REMARK   37  A    between atoms: _86  and  _87
REMARK   38  A    between atoms: _90  and  _92
REMARK   39  A    between atoms: _92  and  _93
REMARK   40  A    between atoms: _95  and  _97
REMARK   41  A    between atoms: _97  and  _98
REMARK   42  A    between atoms: _97  and  _100
REMARK   43  A    between atoms: _100  and  _101
REMARK   44  A    between atoms: _106  and  _108
REMARK   45  A    between atoms: _108  and  _109
REMARK   46  A    between atoms: _108  and  _111
REMARK   47  A    between atoms: _111  and  _112
REMARK   48  A    between atoms: _117  and  _118
REMARK   49  A    between atoms: _120  and  _122
REMARK   50  A    between atoms: _122  and  _123
REMARK   51  A    between atoms: _122  and  _125
REMARK   52  A    between atoms: _125  and  _126
REMARK   53  A    between atoms: _129  and  _131
REMARK   54  A    between atoms: _131  and  _132
REMARK   55  A    between atoms: _134  and  _136
REMARK   56  A    between atoms: _136  and  _137
REMARK   57  A    between atoms: _140  and  _142
REMARK   58  A    between atoms: _142  and  _143
REMARK   59  A    between atoms: _142  and  _145
REMARK   60  A    between atoms: _145  and  _146
REMARK   61  A    between atoms: _149  and  _151
REMARK   62  A    between atoms: _151  and  _152
REMARK   63  A    between atoms: _151  and  _154
REMARK   64  A    between atoms: _154  and  _155
REMARK   65  A    between atoms: _155  and  _156
REMARK   66  A    between atoms: _156  and  _157
REMARK   67  A    between atoms: _166  and  _168
REMARK   68  A    between atoms: _168  and  _169
REMARK   69  A    between atoms: _168  and  _171
REMARK   70  A    between atoms: _171  and  _172
REMARK   71  A    between atoms: _172  and  _173
REMARK   72  A    between atoms: _178  and  _180
REMARK   73  A    between atoms: _180  and  _181
REMARK   74  A    between atoms: _180  and  _183
REMARK   75  A    between atoms: _183  and  _184
REMARK   76  A    between atoms: _190  and  _192
REMARK   77  A    between atoms: _192  and  _193
REMARK   78  A    between atoms: _192  and  _195
REMARK   79  A    between atoms: _197  and  _199
REMARK   80  A    between atoms: _199  and  _200
REMARK   81  A    between atoms: _199  and  _202
REMARK   82  A    between atoms: _205  and  _207
REMARK   83  A    between atoms: _207  and  _208
REMARK   84  A    between atoms: _207  and  _210
REMARK   85  A    between atoms: _210  and  _211
REMARK   86  A    between atoms: _216  and  _218
REMARK   87  A    between atoms: _218  and  _219
REMARK   88  A    between atoms: _222  and  _224
REMARK   89  A    between atoms: _224  and  _225
REMARK   90  A    between atoms: _224  and  _227
REMARK   91  A    between atoms: _227  and  _228
REMARK   92  A    between atoms: _231  and  _233
REMARK   93  A    between atoms: _233  and  _234
REMARK   94  A    between atoms: _233  and  _236
REMARK   95  A    between atoms: _239  and  _241
REMARK   96  A    between atoms: _241  and  _242
REMARK   97  A    between atoms: _241  and  _244
REMARK   98  A    between atoms: _244  and  _245
REMARK   99  A    between atoms: _245  and  _246
REMARK  100  A    between atoms: _251  and  _253
REMARK  101  A    between atoms: _253  and  _254
REMARK  102  A    between atoms: _253  and  _256
REMARK  103  A    between atoms: _256  and  _257
REMARK  104  A    between atoms: _260  and  _262
REMARK  105  A    between atoms: _262  and  _263
REMARK  106  A    between atoms: _262  and  _265
REMARK  107  A    between atoms: _265  and  _266
REMARK  108  A    between atoms: _271  and  _272
REMARK  109  A    between atoms: _274  and  _276
REMARK  110  A    between atoms: _276  and  _277
REMARK  111  A    between atoms: _276  and  _279
REMARK  112  A    between atoms: _279  and  _280
REMARK  113  A    between atoms: _280  and  _281
REMARK  114  A    between atoms: _286  and  _288
REMARK  115  A    between atoms: _288  and  _289
REMARK  116  A    between atoms: _288  and  _291
REMARK  117  A    between atoms: _291  and  _292
REMARK  118  A    between atoms: _292  and  _293
REMARK  119  A    between atoms: _293  and  _294
REMARK  120  A    between atoms: _294  and  _295
REMARK  121  A    between atoms: _299  and  _301
REMARK  122  A    between atoms: _301  and  _302
REMARK  123  A    between atoms: _301  and  _304
REMARK  124  A    between atoms: _304  and  _305
REMARK  125  A    between atoms: _310  and  _311
REMARK  126  A    between atoms: _313  and  _315
REMARK  127  A    between atoms: _315  and  _316
REMARK  128  A    between atoms: _315  and  _318
REMARK  129  A    between atoms: _318  and  _319
REMARK  130  A    between atoms: _319  and  _320
REMARK  131  A    between atoms: _322  and  _324
REMARK  132  A    between atoms: _324  and  _325
REMARK  133  A    between atoms: _324  and  _327
REMARK  134  A    between atoms: _331  and  _332
REMARK  135  A    between atoms: _337  and  _339
REMARK  136  A    between atoms: _339  and  _340
REMARK  137  A    between atoms: _339  and  _342
REMARK  138  A    between atoms: _345  and  _347
REMARK  139  A    between atoms: _347  and  _348
REMARK  140  A    between atoms: _350  and  _352
REMARK  141  A    between atoms: _352  and  _353
REMARK  142  A    between atoms: _352  and  _355
REMARK  143  A    between atoms: _355  and  _356
REMARK  144  A    between atoms: _356  and  _357
REMARK  145  A    between atoms: _360  and  _362
REMARK  146  A    between atoms: _362  and  _363
REMARK  147  A    between atoms: _362  and  _365
REMARK  148  A    between atoms: _365  and  _366
REMARK  149  A    between atoms: _369  and  _371
REMARK  150  A    between atoms: _371  and  _372
REMARK  151  A    between atoms: _371  and  _374
REMARK  152  A    between atoms: _374  and  _375
REMARK  153  A    between atoms: _375  and  _376
REMARK  154  A    between atoms: _381  and  _383
REMARK  155  A    between atoms: _383  and  _384
REMARK  156  A    between atoms: _383  and  _386
REMARK  157  A    between atoms: _386  and  _387
REMARK  158  A    between atoms: _387  and  _388
REMARK  159  A    between atoms: _388  and  _389
REMARK  160  A    between atoms: _389  and  _390
REMARK  161  A    between atoms: _394  and  _396
REMARK  162  A    between atoms: _396  and  _397
REMARK  163  A    between atoms: _396  and  _399
REMARK  164  A    between atoms: _399  and  _400
REMARK  165  A    between atoms: _405  and  _407
REMARK  166  A    between atoms: _407  and  _408
REMARK  167  A    between atoms: _407  and  _410
REMARK  168  A    between atoms: _410  and  _411
REMARK  169  A    between atoms: _414  and  _416
REMARK  170  A    between atoms: _416  and  _417
REMARK  171  A    between atoms: _416  and  _419
REMARK  172  A    between atoms: _419  and  _420
REMARK  173  A    between atoms: _420  and  _421
REMARK  174  A    between atoms: _421  and  _422
REMARK  175  A    between atoms: _431  and  _433
REMARK  176  A    between atoms: _433  and  _434
REMARK  177  A    between atoms: _433  and  _436
REMARK  178  A    between atoms: _436  and  _437
REMARK  179  A    between atoms: _441  and  _442
REMARK  180  A    between atoms: _447  and  _449
REMARK  181  A    between atoms: _449  and  _450
REMARK  182  A    between atoms: _449  and  _452
REMARK  183  A    between atoms: _455  and  _457
REMARK  184  A    between atoms: _457  and  _458
REMARK  185  A    between atoms: _460  and  _462
REMARK  186  A    between atoms: _462  and  _463
REMARK  187  A    between atoms: _466  and  _468
REMARK  188  A    between atoms: _468  and  _469
REMARK  189  A    between atoms: _468  and  _471
REMARK  190  A    between atoms: _471  and  _472
REMARK  191  A    between atoms: _472  and  _473
REMARK  192  A    between atoms: _473  and  _474
REMARK  193  A    between atoms: _483  and  _485
REMARK  194  A    between atoms: _485  and  _486
REMARK  195  A    between atoms: _485  and  _488
REMARK  196  A    between atoms: _488  and  _489
REMARK  197  A    between atoms: _492  and  _494
REMARK  198  A    between atoms: _494  and  _495
REMARK  199  A    between atoms: _494  and  _497
REMARK  200  A    between atoms: _497  and  _498
REMARK  201  A    between atoms: _498  and  _499
REMARK  202  A    between atoms: _501  and  _503
REMARK  203  A    between atoms: _503  and  _504
REMARK  204  A    between atoms: _503  and  _506
REMARK  205  A    between atoms: _506  and  _507
REMARK  206  A    between atoms: _509  and  _511
REMARK  207  A    between atoms: _511  and  _512
REMARK  208  A    between atoms: _511  and  _514
REMARK  209  A    between atoms: _514  and  _515
REMARK  210  A    between atoms: _515  and  _516
REMARK  211  A    between atoms: _516  and  _517
REMARK  212  A    between atoms: _517  and  _518
REMARK  213  A    between atoms: _522  and  _524
REMARK  214  A    between atoms: _524  and  _525
REMARK  215  A    between atoms: _524  and  _527
REMARK  216  A    between atoms: _527  and  _528
REMARK  217  A    between atoms: _528  and  _529
REMARK  218  A    between atoms: _529  and  _530
REMARK  219  A    between atoms: _530  and  _531
REMARK  220  A    between atoms: _535  and  _537
REMARK  221  A    between atoms: _537  and  _538
REMARK  222  A    between atoms: _537  and  _540
REMARK  223  A    between atoms: _540  and  _541
REMARK  224  A    between atoms: _541  and  _542
REMARK  225  A    between atoms: _544  and  _546
REMARK  226  A    between atoms: _546  and  _547
REMARK  227  A    between atoms: _546  and  _549
REMARK  228  A    between atoms: _549  and  _550
REMARK  229  A    between atoms: _552  and  _554
REMARK  230  A    between atoms: _554  and  _555
REMARK  231  A    between atoms: _554  and  _557
REMARK  232  A    between atoms: _557  and  _558
REMARK  233  A    between atoms: _558  and  _559
REMARK  234  A    between atoms: _559  and  _560
REMARK  235  A    between atoms: _560  and  _561
REMARK  236  A    between atoms: _565  and  _567
REMARK  237  A    between atoms: _567  and  _568
REMARK  238  A    between atoms: _567  and  _570
REMARK  239  A    between atoms: _570  and  _571
REMARK  240  A    between atoms: _573  and  _575
REMARK  241  A    between atoms: _575  and  _576
REMARK  242  A    between atoms: _575  and  _578
REMARK  243  A    between atoms: _578  and  _579
REMARK  244  A    between atoms: _583  and  _584
REMARK  245  A    between atoms: _589  and  _591
REMARK  246  A    between atoms: _591  and  _592
REMARK  247  A    between atoms: _591  and  _594
REMARK  248  A    between atoms: _594  and  _595
REMARK  249  A    between atoms: _600  and  _601
REMARK  250  A    between atoms: _603  and  _605
REMARK  251  A    between atoms: _605  and  _606
REMARK  252  A    between atoms: _605  and  _608
REMARK  253  A    between atoms: _608  and  _609
REMARK                            x       y       z     vdW  Elec       q    Type
REMARK                         _______ _______ _______ _____ _____    ______ ____
ROOT
ATOM      1  O   HOH     1      48.762  18.459  28.238  0.00  0.00    +0.000 OA
ENDROOT
TORSDOF 0
REMARK  Name = ../refined-set-2016/1m83/1m83_pocket.pdb
REMARK  253 active torsions:
REMARK  status: ('A' for Active; 'I' for Inactive)
REMARK    1  A    between atoms: _1  and  _3
REMARK    2  A    between atoms: _3  and  _4
REMARK    3  A    between atoms: _3  and  _6
REMARK    4  A    between atoms: _6  and  _7
REMARK    5  A    between atoms: _9  and  _11
REMARK    6  A    between atoms: _11  and  _12
REMARK    7  A    between atoms: _14  and  _16
REMARK    8  A    between atoms: _16  and  _17
REMARK    9  A    between atoms: _16  and  _19
REMARK   10  A    between atoms: _19  and  _20
REMARK   11  A    between atoms: _23  and  _25
REMARK   12  A    between atoms: _25  and  _26
REMARK   13  A    between atoms: _25  and  _28
REMARK   14  A    between atoms: _28  and  _29
REMARK   15  A    between atoms: _29  and  _30
REMARK   16  A    between atoms: _36  and  _37
REMARK   17  A    between atoms: _42  and  _44
REMARK   18  A    between atoms: _44  and  _45
REMARK   19  A    between atoms: _44  and  _47
REMARK   20  A    between atoms: _47  and  _48
REMARK   21  A    between atoms: _50  and  _52
REMARK   22  A    between atoms: _52  and  _53
REMARK   23  A    between atoms: _55  and  _57
REMARK   24  A    between atoms: _57  and  _58
REMARK   25  A    between atoms: _57  and  _60
REMARK   26  A    between atoms: _63  and  _65
REMARK   27  A    between atoms: _65  and  _66
REMARK   28  A    between atoms: _65  and  _68
REMARK   29  A    between atoms: _68  and  _69
REMARK   30  A    between atoms: _72  and  _74
REMARK   31  A    between atoms: _74  and  _75
REMARK   32  A    between atoms: _74  and  _77
REMARK   33  A    between atoms: _77  and  _78
REMARK   34  A    between atoms: _81  and  _83
REMARK   35  A    between atoms: _83  and  _84
REMARK   36  A    between atoms: _83  and  _86
REMARK   37  A    between atoms: _86  and  _87
REMARK   38  A    between atoms: _90  and  _92
REMARK   39  A    between atoms: _92  and  _93
REMARK   40  A    between atoms: _95  and  _97
REMARK   41  A    between atoms: _97  and  _98
REMARK   42  A    between atoms: _97  and  _100
REMARK   43  A    between atoms: _100  and  _101
REMARK   44  A    between atoms: _106  and  _108
REMARK   45  A    between atoms: _108  and  _109
REMARK   46  A    between atoms: _108  and  _111
REMARK   47  A    between atoms: _111  and  _112
REMARK   48  A    between atoms: _117  and  _118
REMARK   49  A    between atoms: _120  and  _122
REMARK   50  A    between atoms: _122  and  _123
REMARK   51  A    between atoms: _122  and  _125
REMARK   52  A    between atoms: _125  and  _126
REMARK   53  A    between atoms: _129  and  _131
REMARK   54  A    between atoms: _131  and  _132
REMARK   55  A    between atoms: _134  and  _136
REMARK   56  A    between atoms: _136  and  _137
REMARK   57  A    between atoms: _140  and  _142
REMARK   58  A    between atoms: _142  and  _143
REMARK   59  A    between atoms: _142  and  _145
REMARK   60  A    between atoms: _145  and  _146
REMARK   61  A    between atoms: _149  and  _151
REMARK   62  A    between atoms: _151  and  _152
REMARK   63  A    between atoms: _151  and  _154
REMARK   64  A    between atoms: _154  and  _155
REMARK   65  A    between atoms: _155  and  _156
REMARK   66  A    between atoms: _156  and  _157
REMARK   67  A    between atoms: _166  and  _168
REMARK   68  A    between atoms: _168  and  _169
REMARK   69  A    between atoms: _168  and  _171
REMARK   70  A    between atoms: _171  and  _172
REMARK   71  A    between atoms: _172  and  _173
REMARK   72  A    between atoms: _178  and  _180
REMARK   73  A    between atoms: _180  and  _181
REMARK   74  A    between atoms: _180  and  _183
REMARK   75  A    between atoms: _183  and  _184
REMARK   76  A    between atoms: _190  and  _192
REMARK   77  A    between atoms: _192  and  _193
REMARK   78  A    between atoms: _192  and  _195
REMARK   79  A    between atoms: _197  and  _199
REMARK   80  A    between atoms: _199  and  _200
REMARK   81  A    between atoms: _199  and  _202
REMARK   82  A    between atoms: _205  and  _207
REMARK   83  A    between atoms: _207  and  _208
REMARK   84  A    between atoms: _207  and  _210
REMARK   85  A    between atoms: _210  and  _211
REMARK   86  A    between atoms: _216  and  _218
REMARK   87  A    between atoms: _218  and  _219
REMARK   88  A    between atoms: _222  and  _224
REMARK   89  A    between atoms: _224  and  _225
REMARK   90  A    between atoms: _224  and  _227
REMARK   91  A    between atoms: _227  and  _228
REMARK   92  A    between atoms: _231  and  _233
REMARK   93  A    between atoms: _233  and  _234
REMARK   94  A    between atoms: _233  and  _236
REMARK   95  A    between atoms: _239  and  _241
REMARK   96  A    between atoms: _241  and  _242
REMARK   97  A    between atoms: _241  and  _244
REMARK   98  A    between atoms: _244  and  _245
REMARK   99  A    between atoms: _245  and  _246
REMARK  100  A    between atoms: _251  and  _253
REMARK  101  A    between atoms: _253  and  _254
REMARK  102  A    between atoms: _253  and  _256
REMARK  103  A    between atoms: _256  and  _257
REMARK  104  A    between atoms: _260  and  _262
REMARK  105  A    between atoms: _262  and  _263
REMARK  106  A    between atoms: _262  and  _265
REMARK  107  A    between atoms: _265  and  _266
REMARK  108  A    between atoms: _271  and  _272
REMARK  109  A    between atoms: _274  and  _276
REMARK  110  A    between atoms: _276  and  _277
REMARK  111  A    between atoms: _276  and  _279
REMARK  112  A    between atoms: _279  and  _280
REMARK  113  A    between atoms: _280  and  _281
REMARK  114  A    between atoms: _286  and  _288
REMARK  115  A    between atoms: _288  and  _289
REMARK  116  A    between atoms: _288  and  _291
REMARK  117  A    between atoms: _291  and  _292
REMARK  118  A    between atoms: _292  and  _293
REMARK  119  A    between atoms: _293  and  _294
REMARK  120  A    between atoms: _294  and  _295
REMARK  121  A    between atoms: _299  and  _301
REMARK  122  A    between atoms: _301  and  _302
REMARK  123  A    between atoms: _301  and  _304
REMARK  124  A    between atoms: _304  and  _305
REMARK  125  A    between atoms: _310  and  _311
REMARK  126  A    between atoms: _313  and  _315
REMARK  127  A    between atoms: _315  and  _316
REMARK  128  A    between atoms: _315  and  _318
REMARK  129  A    between atoms: _318  and  _319
REMARK  130  A    between atoms: _319  and  _320
REMARK  131  A    between atoms: _322  and  _324
REMARK  132  A    between atoms: _324  and  _325
REMARK  133  A    between atoms: _324  and  _327
REMARK  134  A    between atoms: _331  and  _332
REMARK  135  A    between atoms: _337  and  _339
REMARK  136  A    between atoms: _339  and  _340
REMARK  137  A    between atoms: _339  and  _342
REMARK  138  A    between atoms: _345  and  _347
REMARK  139  A    between atoms: _347  and  _348
REMARK  140  A    between atoms: _350  and  _352
REMARK  141  A    between atoms: _352  and  _353
REMARK  142  A    between atoms: _352  and  _355
REMARK  143  A    between atoms: _355  and  _356
REMARK  144  A    between atoms: _356  and  _357
REMARK  145  A    between atoms: _360  and  _362
REMARK  146  A    between atoms: _362  and  _363
REMARK  147  A    between atoms: _362  and  _365
REMARK  148  A    between atoms: _365  and  _366
REMARK  149  A    between atoms: _369  and  _371
REMARK  150  A    between atoms: _371  and  _372
REMARK  151  A    between atoms: _371  and  _374
REMARK  152  A    between atoms: _374  and  _375
REMARK  153  A    between atoms: _375  and  _376
REMARK  154  A    between atoms: _381  and  _383
REMARK  155  A    between atoms: _383  and  _384
REMARK  156  A    between atoms: _383  and  _386
REMARK  157  A    between atoms: _386  and  _387
REMARK  158  A    between atoms: _387  and  _388
REMARK  159  A    between atoms: _388  and  _389
REMARK  160  A    between atoms: _389  and  _390
REMARK  161  A    between atoms: _394  and  _396
REMARK  162  A    between atoms: _396  and  _397
REMARK  163  A    between atoms: _396  and  _399
REMARK  164  A    between atoms: _399  and  _400
REMARK  165  A    between atoms: _405  and  _407
REMARK  166  A    between atoms: _407  and  _408
REMARK  167  A    between atoms: _407  and  _410
REMARK  168  A    between atoms: _410  and  _411
REMARK  169  A    between atoms: _414  and  _416
REMARK  170  A    between atoms: _416  and  _417
REMARK  171  A    between atoms: _416  and  _419
REMARK  172  A    between atoms: _419  and  _420
REMARK  173  A    between atoms: _420  and  _421
REMARK  174  A    between atoms: _421  and  _422
REMARK  175  A    between atoms: _431  and  _433
REMARK  176  A    between atoms: _433  and  _434
REMARK  177  A    between atoms: _433  and  _436
REMARK  178  A    between atoms: _436  and  _437
REMARK  179  A    between atoms: _441  and  _442
REMARK  180  A    between atoms: _447  and  _449
REMARK  181  A    between atoms: _449  and  _450
REMARK  182  A    between atoms: _449  and  _452
REMARK  183  A    between atoms: _455  and  _457
REMARK  184  A    between atoms: _457  and  _458
REMARK  185  A    between atoms: _460  and  _462
REMARK  186  A    between atoms: _462  and  _463
REMARK  187  A    between atoms: _466  and  _468
REMARK  188  A    between atoms: _468  and  _469
REMARK  189  A    between atoms: _468  and  _471
REMARK  190  A    between atoms: _471  and  _472
REMARK  191  A    between atoms: _472  and  _473
REMARK  192  A    between atoms: _473  and  _474
REMARK  193  A    between atoms: _483  and  _485
REMARK  194  A    between atoms: _485  and  _486
REMARK  195  A    between atoms: _485  and  _488
REMARK  196  A    between atoms: _488  and  _489
REMARK  197  A    between atoms: _492  and  _494
REMARK  198  A    between atoms: _494  and  _495
REMARK  199  A    between atoms: _494  and  _497
REMARK  200  A    between atoms: _497  and  _498
REMARK  201  A    between atoms: _498  and  _499
REMARK  202  A    between atoms: _501  and  _503
REMARK  203  A    between atoms: _503  and  _504
REMARK  204  A    between atoms: _503  and  _506
REMARK  205  A    between atoms: _506  and  _507
REMARK  206  A    between atoms: _509  and  _511
REMARK  207  A    between atoms: _511  and  _512
REMARK  208  A    between atoms: _511  and  _514
REMARK  209  A    between atoms: _514  and  _515
REMARK  210  A    between atoms: _515  and  _516
REMARK  211  A    between atoms: _516  and  _517
REMARK  212  A    between atoms: _517  and  _518
REMARK  213  A    between atoms: _522  and  _524
REMARK  214  A    between atoms: _524  and  _525
REMARK  215  A    between atoms: _524  and  _527
REMARK  216  A    between atoms: _527  and  _528
REMARK  217  A    between atoms: _528  and  _529
REMARK  218  A    between atoms: _529  and  _530
REMARK  219  A    between atoms: _530  and  _531
REMARK  220  A    between atoms: _535  and  _537
REMARK  221  A    between atoms: _537  and  _538
REMARK  222  A    between atoms: _537  and  _540
REMARK  223  A    between atoms: _540  and  _541
REMARK  224  A    between atoms: _541  and  _542
REMARK  225  A    between atoms: _544  and  _546
REMARK  226  A    between atoms: _546  and  _547
REMARK  227  A    between atoms: _546  and  _549
REMARK  228  A    between atoms: _549  and  _550
REMARK  229  A    between atoms: _552  and  _554
REMARK  230  A    between atoms: _554  and  _555
REMARK  231  A    between atoms: _554  and  _557
REMARK  232  A    between atoms: _557  and  _558
REMARK  233  A    between atoms: _558  and  _559
REMARK  234  A    between atoms: _559  and  _560
REMARK  235  A    between atoms: _560  and  _561
REMARK  236  A    between atoms: _565  and  _567
REMARK  237  A    between atoms: _567  and  _568
REMARK  238  A    between atoms: _567  and  _570
REMARK  239  A    between atoms: _570  and  _571
REMARK  240  A    between atoms: _573  and  _575
REMARK  241  A    between atoms: _575  and  _576
REMARK  242  A    between atoms: _575  and  _578
REMARK  243  A    between atoms: _578  and  _579
REMARK  244  A    between atoms: _583  and  _584
REMARK  245  A    between atoms: _589  and  _591
REMARK  246  A    between atoms: _591  and  _592
REMARK  247  A    between atoms: _591  and  _594
REMARK  248  A    between atoms: _594  and  _595
REMARK  249  A    between atoms: _600  and  _601
REMARK  250  A    between atoms: _603  and  _605
REMARK  251  A    between atoms: _605  and  _606
REMARK  252  A    between atoms: _605  and  _608
REMARK  253  A    between atoms: _608  and  _609
REMARK                            x       y       z     vdW  Elec       q    Type
REMARK                         _______ _______ _______ _____ _____    ______ ____
ROOT
ATOM      1  O   HOH     1      45.446  28.255  32.944  0.00  0.00    +0.000 OA
ENDROOT
TORSDOF 0
REMARK  Name = ../refined-set-2016/1m83/1m83_pocket.pdb
REMARK  253 active torsions:
REMARK  status: ('A' for Active; 'I' for Inactive)
REMARK    1  A    between atoms: _1  and  _3
REMARK    2  A    between atoms: _3  and  _4
REMARK    3  A    between atoms: _3  and  _6
REMARK    4  A    between atoms: _6  and  _7
REMARK    5  A    between atoms: _9  and  _11
REMARK    6  A    between atoms: _11  and  _12
REMARK    7  A    between atoms: _14  and  _16
REMARK    8  A    between atoms: _16  and  _17
REMARK    9  A    between atoms: _16  and  _19
REMARK   10  A    between atoms: _19  and  _20
REMARK   11  A    between atoms: _23  and  _25
REMARK   12  A    between atoms: _25  and  _26
REMARK   13  A    between atoms: _25  and  _28
REMARK   14  A    between atoms: _28  and  _29
REMARK   15  A    between atoms: _29  and  _30
REMARK   16  A    between atoms: _36  and  _37
REMARK   17  A    between atoms: _42  and  _44
REMARK   18  A    between atoms: _44  and  _45
REMARK   19  A    between atoms: _44  and  _47
REMARK   20  A    between atoms: _47  and  _48
REMARK   21  A    between atoms: _50  and  _52
REMARK   22  A    between atoms: _52  and  _53
REMARK   23  A    between atoms: _55  and  _57
REMARK   24  A    between atoms: _57  and  _58
REMARK   25  A    between atoms: _57  and  _60
REMARK   26  A    between atoms: _63  and  _65
REMARK   27  A    between atoms: _65  and  _66
REMARK   28  A    between atoms: _65  and  _68
REMARK   29  A    between atoms: _68  and  _69
REMARK   30  A    between atoms: _72  and  _74
REMARK   31  A    between atoms: _74  and  _75
REMARK   32  A    between atoms: _74  and  _77
REMARK   33  A    between atoms: _77  and  _78
REMARK   34  A    between atoms: _81  and  _83
REMARK   35  A    between atoms: _83  and  _84
REMARK   36  A    between atoms: _83  and  _86
REMARK   37  A    between atoms: _86  and  _87
REMARK   38  A    between atoms: _90  and  _92
REMARK   39  A    between atoms: _92  and  _93
REMARK   40  A    between atoms: _95  and  _97
REMARK   41  A    between atoms: _97  and  _98
REMARK   42  A    between atoms: _97  and  _100
REMARK   43  A    between atoms: _100  and  _101
REMARK   44  A    between atoms: _106  and  _108
REMARK   45  A    between atoms: _108  and  _109
REMARK   46  A    between atoms: _108  and  _111
REMARK   47  A    between atoms: _111  and  _112
REMARK   48  A    between atoms: _117  and  _118
REMARK   49  A    between atoms: _120  and  _122
REMARK   50  A    between atoms: _122  and  _123
REMARK   51  A    between atoms: _122  and  _125
REMARK   52  A    between atoms: _125  and  _126
REMARK   53  A    between atoms: _129  and  _131
REMARK   54  A    between atoms: _131  and  _132
REMARK   55  A    between atoms: _134  and  _136
REMARK   56  A    between atoms: _136  and  _137
REMARK   57  A    between atoms: _140  and  _142
REMARK   58  A    between atoms: _142  and  _143
REMARK   59  A    between atoms: _142  and  _145
REMARK   60  A    between atoms: _145  and  _146
REMARK   61  A    between atoms: _149  and  _151
REMARK   62  A    between atoms: _151  and  _152
REMARK   63  A    between atoms: _151  and  _154
REMARK   64  A    between atoms: _154  and  _155
REMARK   65  A    between atoms: _155  and  _156
REMARK   66  A    between atoms: _156  and  _157
REMARK   67  A    between atoms: _166  and  _168
REMARK   68  A    between atoms: _168  and  _169
REMARK   69  A    between atoms: _168  and  _171
REMARK   70  A    between atoms: _171  and  _172
REMARK   71  A    between atoms: _172  and  _173
REMARK   72  A    between atoms: _178  and  _180
REMARK   73  A    between atoms: _180  and  _181
REMARK   74  A    between atoms: _180  and  _183
REMARK   75  A    between atoms: _183  and  _184
REMARK   76  A    between atoms: _190  and  _192
REMARK   77  A    between atoms: _192  and  _193
REMARK   78  A    between atoms: _192  and  _195
REMARK   79  A    between atoms: _197  and  _199
REMARK   80  A    between atoms: _199  and  _200
REMARK   81  A    between atoms: _199  and  _202
REMARK   82  A    between atoms: _205  and  _207
REMARK   83  A    between atoms: _207  and  _208
REMARK   84  A    between atoms: _207  and  _210
REMARK   85  A    between atoms: _210  and  _211
REMARK   86  A    between atoms: _216  and  _218
REMARK   87  A    between atoms: _218  and  _219
REMARK   88  A    between atoms: _222  and  _224
REMARK   89  A    between atoms: _224  and  _225
REMARK   90  A    between atoms: _224  and  _227
REMARK   91  A    between atoms: _227  and  _228
REMARK   92  A    between atoms: _231  and  _233
REMARK   93  A    between atoms: _233  and  _234
REMARK   94  A    between atoms: _233  and  _236
REMARK   95  A    between atoms: _239  and  _241
REMARK   96  A    between atoms: _241  and  _242
REMARK   97  A    between atoms: _241  and  _244
REMARK   98  A    between atoms: _244  and  _245
REMARK   99  A    between atoms: _245  and  _246
REMARK  100  A    between atoms: _251  and  _253
REMARK  101  A    between atoms: _253  and  _254
REMARK  102  A    between atoms: _253  and  _256
REMARK  103  A    between atoms: _256  and  _257
REMARK  104  A    between atoms: _260  and  _262
REMARK  105  A    between atoms: _262  and  _263
REMARK  106  A    between atoms: _262  and  _265
REMARK  107  A    between atoms: _265  and  _266
REMARK  108  A    between atoms: _271  and  _272
REMARK  109  A    between atoms: _274  and  _276
REMARK  110  A    between atoms: _276  and  _277
REMARK  111  A    between atoms: _276  and  _279
REMARK  112  A    between atoms: _279  and  _280
REMARK  113  A    between atoms: _280  and  _281
REMARK  114  A    between atoms: _286  and  _288
REMARK  115  A    between atoms: _288  and  _289
REMARK  116  A    between atoms: _288  and  _291
REMARK  117  A    between atoms: _291  and  _292
REMARK  118  A    between atoms: _292  and  _293
REMARK  119  A    between atoms: _293  and  _294
REMARK  120  A    between atoms: _294  and  _295
REMARK  121  A    between atoms: _299  and  _301
REMARK  122  A    between atoms: _301  and  _302
REMARK  123  A    between atoms: _301  and  _304
REMARK  124  A    between atoms: _304  and  _305
REMARK  125  A    between atoms: _310  and  _311
REMARK  126  A    between atoms: _313  and  _315
REMARK  127  A    between atoms: _315  and  _316
REMARK  128  A    between atoms: _315  and  _318
REMARK  129  A    between atoms: _318  and  _319
REMARK  130  A    between atoms: _319  and  _320
REMARK  131  A    between atoms: _322  and  _324
REMARK  132  A    between atoms: _324  and  _325
REMARK  133  A    between atoms: _324  and  _327
REMARK  134  A    between atoms: _331  and  _332
REMARK  135  A    between atoms: _337  and  _339
REMARK  136  A    between atoms: _339  and  _340
REMARK  137  A    between atoms: _339  and  _342
REMARK  138  A    between atoms: _345  and  _347
REMARK  139  A    between atoms: _347  and  _348
REMARK  140  A    between atoms: _350  and  _352
REMARK  141  A    between atoms: _352  and  _353
REMARK  142  A    between atoms: _352  and  _355
REMARK  143  A    between atoms: _355  and  _356
REMARK  144  A    between atoms: _356  and  _357
REMARK  145  A    between atoms: _360  and  _362
REMARK  146  A    between atoms: _362  and  _363
REMARK  147  A    between atoms: _362  and  _365
REMARK  148  A    between atoms: _365  and  _366
REMARK  149  A    between atoms: _369  and  _371
REMARK  150  A    between atoms: _371  and  _372
REMARK  151  A    between atoms: _371  and  _374
REMARK  152  A    between atoms: _374  and  _375
REMARK  153  A    between atoms: _375  and  _376
REMARK  154  A    between atoms: _381  and  _383
REMARK  155  A    between atoms: _383  and  _384
REMARK  156  A    between atoms: _383  and  _386
REMARK  157  A    between atoms: _386  and  _387
REMARK  158  A    between atoms: _387  and  _388
REMARK  159  A    between atoms: _388  and  _389
REMARK  160  A    between atoms: _389  and  _390
REMARK  161  A    between atoms: _394  and  _396
REMARK  162  A    between atoms: _396  and  _397
REMARK  163  A    between atoms: _396  and  _399
REMARK  164  A    between atoms: _399  and  _400
REMARK  165  A    between atoms: _405  and  _407
REMARK  166  A    between atoms: _407  and  _408
REMARK  167  A    between atoms: _407  and  _410
REMARK  168  A    between atoms: _410  and  _411
REMARK  169  A    between atoms: _414  and  _416
REMARK  170  A    between atoms: _416  and  _417
REMARK  171  A    between atoms: _416  and  _419
REMARK  172  A    between atoms: _419  and  _420
REMARK  173  A    between atoms: _420  and  _421
REMARK  174  A    between atoms: _421  and  _422
REMARK  175  A    between atoms: _431  and  _433
REMARK  176  A    between atoms: _433  and  _434
REMARK  177  A    between atoms: _433  and  _436
REMARK  178  A    between atoms: _436  and  _437
REMARK  179  A    between atoms: _441  and  _442
REMARK  180  A    between atoms: _447  and  _449
REMARK  181  A    between atoms: _449  and  _450
REMARK  182  A    between atoms: _449  and  _452
REMARK  183  A    between atoms: _455  and  _457
REMARK  184  A    between atoms: _457  and  _458
REMARK  185  A    between atoms: _460  and  _462
REMARK  186  A    between atoms: _462  and  _463
REMARK  187  A    between atoms: _466  and  _468
REMARK  188  A    between atoms: _468  and  _469
REMARK  189  A    between atoms: _468  and  _471
REMARK  190  A    between atoms: _471  and  _472
REMARK  191  A    between atoms: _472  and  _473
REMARK  192  A    between atoms: _473  and  _474
REMARK  193  A    between atoms: _483  and  _485
REMARK  194  A    between atoms: _485  and  _486
REMARK  195  A    between atoms: _485  and  _488
REMARK  196  A    between atoms: _488  and  _489
REMARK  197  A    between atoms: _492  and  _494
REMARK  198  A    between atoms: _494  and  _495
REMARK  199  A    between atoms: _494  and  _497
REMARK  200  A    between atoms: _497  and  _498
REMARK  201  A    between atoms: _498  and  _499
REMARK  202  A    between atoms: _501  and  _503
REMARK  203  A    between atoms: _503  and  _504
REMARK  204  A    between atoms: _503  and  _506
REMARK  205  A    between atoms: _506  and  _507
REMARK  206  A    between atoms: _509  and  _511
REMARK  207  A    between atoms: _511  and  _512
REMARK  208  A    between atoms: _511  and  _514
REMARK  209  A    between atoms: _514  and  _515
REMARK  210  A    between atoms: _515  and  _516
REMARK  211  A    between atoms: _516  and  _517
REMARK  212  A    between atoms: _517  and  _518
REMARK  213  A    between atoms: _522  and  _524
REMARK  214  A    between atoms: _524  and  _525
REMARK  215  A    between atoms: _524  and  _527
REMARK  216  A    between atoms: _527  and  _528
REMARK  217  A    between atoms: _528  and  _529
REMARK  218  A    between atoms: _529  and  _530
REMARK  219  A    between atoms: _530  and  _531
REMARK  220  A    between atoms: _535  and  _537
REMARK  221  A    between atoms: _537  and  _538
REMARK  222  A    between atoms: _537  and  _540
REMARK  223  A    between atoms: _540  and  _541
REMARK  224  A    between atoms: _541  and  _542
REMARK  225  A    between atoms: _544  and  _546
REMARK  226  A    between atoms: _546  and  _547
REMARK  227  A    between atoms: _546  and  _549
REMARK  228  A    between atoms: _549  and  _550
REMARK  229  A    between atoms: _552  and  _554
REMARK  230  A    between atoms: _554  and  _555
REMARK  231  A    between atoms: _554  and  _557
REMARK  232  A    between atoms: _557  and  _558
REMARK  233  A    between atoms: _558  and  _559
REMARK  234  A    between atoms: _559  and  _560
REMARK  235  A    between atoms: _560  and  _561
REMARK  236  A    between atoms: _565  and  _567
REMARK  237  A    between atoms: _567  and  _568
REMARK  238  A    between atoms: _567  and  _570
REMARK  239  A    between atoms: _570  and  _571
REMARK  240  A    between atoms: _573  and  _575
REMARK  241  A    between atoms: _575  and  _576
REMARK  242  A    between atoms: _575  and  _578
REMARK  243  A    between atoms: _578  and  _579
REMARK  244  A    between atoms: _583  and  _584
REMARK  245  A    between atoms: _589  and  _591
REMARK  246  A    between atoms: _591  and  _592
REMARK  247  A    between atoms: _591  and  _594
REMARK  248  A    between atoms: _594  and  _595
REMARK  249  A    between atoms: _600  and  _601
REMARK  250  A    between atoms: _603  and  _605
REMARK  251  A    between atoms: _605  and  _606
REMARK  252  A    between atoms: _605  and  _608
REMARK  253  A    between atoms: _608  and  _609
REMARK                            x       y       z     vdW  Elec       q    Type
REMARK                         _______ _______ _______ _____ _____    ______ ____
ROOT
ATOM      1  O   HOH     1      51.335  29.918  44.242  0.00  0.00    +0.000 OA
ENDROOT
TORSDOF 0
REMARK  Name = ../refined-set-2016/1m83/1m83_pocket.pdb
REMARK  253 active torsions:
REMARK  status: ('A' for Active; 'I' for Inactive)
REMARK    1  A    between atoms: _1  and  _3
REMARK    2  A    between atoms: _3  and  _4
REMARK    3  A    between atoms: _3  and  _6
REMARK    4  A    between atoms: _6  and  _7
REMARK    5  A    between atoms: _9  and  _11
REMARK    6  A    between atoms: _11  and  _12
REMARK    7  A    between atoms: _14  and  _16
REMARK    8  A    between atoms: _16  and  _17
REMARK    9  A    between atoms: _16  and  _19
REMARK   10  A    between atoms: _19  and  _20
REMARK   11  A    between atoms: _23  and  _25
REMARK   12  A    between atoms: _25  and  _26
REMARK   13  A    between atoms: _25  and  _28
REMARK   14  A    between atoms: _28  and  _29
REMARK   15  A    between atoms: _29  and  _30
REMARK   16  A    between atoms: _36  and  _37
REMARK   17  A    between atoms: _42  and  _44
REMARK   18  A    between atoms: _44  and  _45
REMARK   19  A    between atoms: _44  and  _47
REMARK   20  A    between atoms: _47  and  _48
REMARK   21  A    between atoms: _50  and  _52
REMARK   22  A    between atoms: _52  and  _53
REMARK   23  A    between atoms: _55  and  _57
REMARK   24  A    between atoms: _57  and  _58
REMARK   25  A    between atoms: _57  and  _60
REMARK   26  A    between atoms: _63  and  _65
REMARK   27  A    between atoms: _65  and  _66
REMARK   28  A    between atoms: _65  and  _68
REMARK   29  A    between atoms: _68  and  _69
REMARK   30  A    between atoms: _72  and  _74
REMARK   31  A    between atoms: _74  and  _75
REMARK   32  A    between atoms: _74  and  _77
REMARK   33  A    between atoms: _77  and  _78
REMARK   34  A    between atoms: _81  and  _83
REMARK   35  A    between atoms: _83  and  _84
REMARK   36  A    between atoms: _83  and  _86
REMARK   37  A    between atoms: _86  and  _87
REMARK   38  A    between atoms: _90  and  _92
REMARK   39  A    between atoms: _92  and  _93
REMARK   40  A    between atoms: _95  and  _97
REMARK   41  A    between atoms: _97  and  _98
REMARK   42  A    between atoms: _97  and  _100
REMARK   43  A    between atoms: _100  and  _101
REMARK   44  A    between atoms: _106  and  _108
REMARK   45  A    between atoms: _108  and  _109
REMARK   46  A    between atoms: _108  and  _111
REMARK   47  A    between atoms: _111  and  _112
REMARK   48  A    between atoms: _117  and  _118
REMARK   49  A    between atoms: _120  and  _122
REMARK   50  A    between atoms: _122  and  _123
REMARK   51  A    between atoms: _122  and  _125
REMARK   52  A    between atoms: _125  and  _126
REMARK   53  A    between atoms: _129  and  _131
REMARK   54  A    between atoms: _131  and  _132
REMARK   55  A    between atoms: _134  and  _136
REMARK   56  A    between atoms: _136  and  _137
REMARK   57  A    between atoms: _140  and  _142
REMARK   58  A    between atoms: _142  and  _143
REMARK   59  A    between atoms: _142  and  _145
REMARK   60  A    between atoms: _145  and  _146
REMARK   61  A    between atoms: _149  and  _151
REMARK   62  A    between atoms: _151  and  _152
REMARK   63  A    between atoms: _151  and  _154
REMARK   64  A    between atoms: _154  and  _155
REMARK   65  A    between atoms: _155  and  _156
REMARK   66  A    between atoms: _156  and  _157
REMARK   67  A    between atoms: _166  and  _168
REMARK   68  A    between atoms: _168  and  _169
REMARK   69  A    between atoms: _168  and  _171
REMARK   70  A    between atoms: _171  and  _172
REMARK   71  A    between atoms: _172  and  _173
REMARK   72  A    between atoms: _178  and  _180
REMARK   73  A    between atoms: _180  and  _181
REMARK   74  A    between atoms: _180  and  _183
REMARK   75  A    between atoms: _183  and  _184
REMARK   76  A    between atoms: _190  and  _192
REMARK   77  A    between atoms: _192  and  _193
REMARK   78  A    between atoms: _192  and  _195
REMARK   79  A    between atoms: _197  and  _199
REMARK   80  A    between atoms: _199  and  _200
REMARK   81  A    between atoms: _199  and  _202
REMARK   82  A    between atoms: _205  and  _207
REMARK   83  A    between atoms: _207  and  _208
REMARK   84  A    between atoms: _207  and  _210
REMARK   85  A    between atoms: _210  and  _211
REMARK   86  A    between atoms: _216  and  _218
REMARK   87  A    between atoms: _218  and  _219
REMARK   88  A    between atoms: _222  and  _224
REMARK   89  A    between atoms: _224  and  _225
REMARK   90  A    between atoms: _224  and  _227
REMARK   91  A    between atoms: _227  and  _228
REMARK   92  A    between atoms: _231  and  _233
REMARK   93  A    between atoms: _233  and  _234
REMARK   94  A    between atoms: _233  and  _236
REMARK   95  A    between atoms: _239  and  _241
REMARK   96  A    between atoms: _241  and  _242
REMARK   97  A    between atoms: _241  and  _244
REMARK   98  A    between atoms: _244  and  _245
REMARK   99  A    between atoms: _245  and  _246
REMARK  100  A    between atoms: _251  and  _253
REMARK  101  A    between atoms: _253  and  _254
REMARK  102  A    between atoms: _253  and  _256
REMARK  103  A    between atoms: _256  and  _257
REMARK  104  A    between atoms: _260  and  _262
REMARK  105  A    between atoms: _262  and  _263
REMARK  106  A    between atoms: _262  and  _265
REMARK  107  A    between atoms: _265  and  _266
REMARK  108  A    between atoms: _271  and  _272
REMARK  109  A    between atoms: _274  and  _276
REMARK  110  A    between atoms: _276  and  _277
REMARK  111  A    between atoms: _276  and  _279
REMARK  112  A    between atoms: _279  and  _280
REMARK  113  A    between atoms: _280  and  _281
REMARK  114  A    between atoms: _286  and  _288
REMARK  115  A    between atoms: _288  and  _289
REMARK  116  A    between atoms: _288  and  _291
REMARK  117  A    between atoms: _291  and  _292
REMARK  118  A    between atoms: _292  and  _293
REMARK  119  A    between atoms: _293  and  _294
REMARK  120  A    between atoms: _294  and  _295
REMARK  121  A    between atoms: _299  and  _301
REMARK  122  A    between atoms: _301  and  _302
REMARK  123  A    between atoms: _301  and  _304
REMARK  124  A    between atoms: _304  and  _305
REMARK  125  A    between atoms: _310  and  _311
REMARK  126  A    between atoms: _313  and  _315
REMARK  127  A    between atoms: _315  and  _316
REMARK  128  A    between atoms: _315  and  _318
REMARK  129  A    between atoms: _318  and  _319
REMARK  130  A    between atoms: _319  and  _320
REMARK  131  A    between atoms: _322  and  _324
REMARK  132  A    between atoms: _324  and  _325
REMARK  133  A    between atoms: _324  and  _327
REMARK  134  A    between atoms: _331  and  _332
REMARK  135  A    between atoms: _337  and  _339
REMARK  136  A    between atoms: _339  and  _340
REMARK  137  A    between atoms: _339  and  _342
REMARK  138  A    between atoms: _345  and  _347
REMARK  139  A    between atoms: _347  and  _348
REMARK  140  A    between atoms: _350  and  _352
REMARK  141  A    between atoms: _352  and  _353
REMARK  142  A    between atoms: _352  and  _355
REMARK  143  A    between atoms: _355  and  _356
REMARK  144  A    between atoms: _356  and  _357
REMARK  145  A    between atoms: _360  and  _362
REMARK  146  A    between atoms: _362  and  _363
REMARK  147  A    between atoms: _362  and  _365
REMARK  148  A    between atoms: _365  and  _366
REMARK  149  A    between atoms: _369  and  _371
REMARK  150  A    between atoms: _371  and  _372
REMARK  151  A    between atoms: _371  and  _374
REMARK  152  A    between atoms: _374  and  _375
REMARK  153  A    between atoms: _375  and  _376
REMARK  154  A    between atoms: _381  and  _383
REMARK  155  A    between atoms: _383  and  _384
REMARK  156  A    between atoms: _383  and  _386
REMARK  157  A    between atoms: _386  and  _387
REMARK  158  A    between atoms: _387  and  _388
REMARK  159  A    between atoms: _388  and  _389
REMARK  160  A    between atoms: _389  and  _390
REMARK  161  A    between atoms: _394  and  _396
REMARK  162  A    between atoms: _396  and  _397
REMARK  163  A    between atoms: _396  and  _399
REMARK  164  A    between atoms: _399  and  _400
REMARK  165  A    between atoms: _405  and  _407
REMARK  166  A    between atoms: _407  and  _408
REMARK  167  A    between atoms: _407  and  _410
REMARK  168  A    between atoms: _410  and  _411
REMARK  169  A    between atoms: _414  and  _416
REMARK  170  A    between atoms: _416  and  _417
REMARK  171  A    between atoms: _416  and  _419
REMARK  172  A    between atoms: _419  and  _420
REMARK  173  A    between atoms: _420  and  _421
REMARK  174  A    between atoms: _421  and  _422
REMARK  175  A    between atoms: _431  and  _433
REMARK  176  A    between atoms: _433  and  _434
REMARK  177  A    between atoms: _433  and  _436
REMARK  178  A    between atoms: _436  and  _437
REMARK  179  A    between atoms: _441  and  _442
REMARK  180  A    between atoms: _447  and  _449
REMARK  181  A    between atoms: _449  and  _450
REMARK  182  A    between atoms: _449  and  _452
REMARK  183  A    between atoms: _455  and  _457
REMARK  184  A    between atoms: _457  and  _458
REMARK  185  A    between atoms: _460  and  _462
REMARK  186  A    between atoms: _462  and  _463
REMARK  187  A    between atoms: _466  and  _468
REMARK  188  A    between atoms: _468  and  _469
REMARK  189  A    between atoms: _468  and  _471
REMARK  190  A    between atoms: _471  and  _472
REMARK  191  A    between atoms: _472  and  _473
REMARK  192  A    between atoms: _473  and  _474
REMARK  193  A    between atoms: _483  and  _485
REMARK  194  A    between atoms: _485  and  _486
REMARK  195  A    between atoms: _485  and  _488
REMARK  196  A    between atoms: _488  and  _489
REMARK  197  A    between atoms: _492  and  _494
REMARK  198  A    between atoms: _494  and  _495
REMARK  199  A    between atoms: _494  and  _497
REMARK  200  A    between atoms: _497  and  _498
REMARK  201  A    between atoms: _498  and  _499
REMARK  202  A    between atoms: _501  and  _503
REMARK  203  A    between atoms: _503  and  _504
REMARK  204  A    between atoms: _503  and  _506
REMARK  205  A    between atoms: _506  and  _507
REMARK  206  A    between atoms: _509  and  _511
REMARK  207  A    between atoms: _511  and  _512
REMARK  208  A    between atoms: _511  and  _514
REMARK  209  A    between atoms: _514  and  _515
REMARK  210  A    between atoms: _515  and  _516
REMARK  211  A    between atoms: _516  and  _517
REMARK  212  A    between atoms: _517  and  _518
REMARK  213  A    between atoms: _522  and  _524
REMARK  214  A    between atoms: _524  and  _525
REMARK  215  A    between atoms: _524  and  _527
REMARK  216  A    between atoms: _527  and  _528
REMARK  217  A    between atoms: _528  and  _529
REMARK  218  A    between atoms: _529  and  _530
REMARK  219  A    between atoms: _530  and  _531
REMARK  220  A    between atoms: _535  and  _537
REMARK  221  A    between atoms: _537  and  _538
REMARK  222  A    between atoms: _537  and  _540
REMARK  223  A    between atoms: _540  and  _541
REMARK  224  A    between atoms: _541  and  _542
REMARK  225  A    between atoms: _544  and  _546
REMARK  226  A    between atoms: _546  and  _547
REMARK  227  A    between atoms: _546  and  _549
REMARK  228  A    between atoms: _549  and  _550
REMARK  229  A    between atoms: _552  and  _554
REMARK  230  A    between atoms: _554  and  _555
REMARK  231  A    between atoms: _554  and  _557
REMARK  232  A    between atoms: _557  and  _558
REMARK  233  A    between atoms: _558  and  _559
REMARK  234  A    between atoms: _559  and  _560
REMARK  235  A    between atoms: _560  and  _561
REMARK  236  A    between atoms: _565  and  _567
REMARK  237  A    between atoms: _567  and  _568
REMARK  238  A    between atoms: _567  and  _570
REMARK  239  A    between atoms: _570  and  _571
REMARK  240  A    between atoms: _573  and  _575
REMARK  241  A    between atoms: _575  and  _576
REMARK  242  A    between atoms: _575  and  _578
REMARK  243  A    between atoms: _578  and  _579
REMARK  244  A    between atoms: _583  and  _584
REMARK  245  A    between atoms: _589  and  _591
REMARK  246  A    between atoms: _591  and  _592
REMARK  247  A    between atoms: _591  and  _594
REMARK  248  A    between atoms: _594  and  _595
REMARK  249  A    between atoms: _600  and  _601
REMARK  250  A    between atoms: _603  and  _605
REMARK  251  A    between atoms: _605  and  _606
REMARK  252  A    between atoms: _605  and  _608
REMARK  253  A    between atoms: _608  and  _609
REMARK                            x       y       z     vdW  Elec       q    Type
REMARK                         _______ _______ _______ _____ _____    ______ ____
ROOT
ATOM      1  O   HOH     1      58.669  23.088  38.852  0.00  0.00    +0.000 OA
ENDROOT
TORSDOF 0
REMARK  Name = ../refined-set-2016/1m83/1m83_pocket.pdb
REMARK  253 active torsions:
REMARK  status: ('A' for Active; 'I' for Inactive)
REMARK    1  A    between atoms: _1  and  _3
REMARK    2  A    between atoms: _3  and  _4
REMARK    3  A    between atoms: _3  and  _6
REMARK    4  A    between atoms: _6  and  _7
REMARK    5  A    between atoms: _9  and  _11
REMARK    6  A    between atoms: _11  and  _12
REMARK    7  A    between atoms: _14  and  _16
REMARK    8  A    between atoms: _16  and  _17
REMARK    9  A    between atoms: _16  and  _19
REMARK   10  A    between atoms: _19  and  _20
REMARK   11  A    between atoms: _23  and  _25
REMARK   12  A    between atoms: _25  and  _26
REMARK   13  A    between atoms: _25  and  _28
REMARK   14  A    between atoms: _28  and  _29
REMARK   15  A    between atoms: _29  and  _30
REMARK   16  A    between atoms: _36  and  _37
REMARK   17  A    between atoms: _42  and  _44
REMARK   18  A    between atoms: _44  and  _45
REMARK   19  A    between atoms: _44  and  _47
REMARK   20  A    between atoms: _47  and  _48
REMARK   21  A    between atoms: _50  and  _52
REMARK   22  A    between atoms: _52  and  _53
REMARK   23  A    between atoms: _55  and  _57
REMARK   24  A    between atoms: _57  and  _58
REMARK   25  A    between atoms: _57  and  _60
REMARK   26  A    between atoms: _63  and  _65
REMARK   27  A    between atoms: _65  and  _66
REMARK   28  A    between atoms: _65  and  _68
REMARK   29  A    between atoms: _68  and  _69
REMARK   30  A    between atoms: _72  and  _74
REMARK   31  A    between atoms: _74  and  _75
REMARK   32  A    between atoms: _74  and  _77
REMARK   33  A    between atoms: _77  and  _78
REMARK   34  A    between atoms: _81  and  _83
REMARK   35  A    between atoms: _83  and  _84
REMARK   36  A    between atoms: _83  and  _86
REMARK   37  A    between atoms: _86  and  _87
REMARK   38  A    between atoms: _90  and  _92
REMARK   39  A    between atoms: _92  and  _93
REMARK   40  A    between atoms: _95  and  _97
REMARK   41  A    between atoms: _97  and  _98
REMARK   42  A    between atoms: _97  and  _100
REMARK   43  A    between atoms: _100  and  _101
REMARK   44  A    between atoms: _106  and  _108
REMARK   45  A    between atoms: _108  and  _109
REMARK   46  A    between atoms: _108  and  _111
REMARK   47  A    between atoms: _111  and  _112
REMARK   48  A    between atoms: _117  and  _118
REMARK   49  A    between atoms: _120  and  _122
REMARK   50  A    between atoms: _122  and  _123
REMARK   51  A    between atoms: _122  and  _125
REMARK   52  A    between atoms: _125  and  _126
REMARK   53  A    between atoms: _129  and  _131
REMARK   54  A    between atoms: _131  and  _132
REMARK   55  A    between atoms: _134  and  _136
REMARK   56  A    between atoms: _136  and  _137
REMARK   57  A    between atoms: _140  and  _142
REMARK   58  A    between atoms: _142  and  _143
REMARK   59  A    between atoms: _142  and  _145
REMARK   60  A    between atoms: _145  and  _146
REMARK   61  A    between atoms: _149  and  _151
REMARK   62  A    between atoms: _151  and  _152
REMARK   63  A    between atoms: _151  and  _154
REMARK   64  A    between atoms: _154  and  _155
REMARK   65  A    between atoms: _155  and  _156
REMARK   66  A    between atoms: _156  and  _157
REMARK   67  A    between atoms: _166  and  _168
REMARK   68  A    between atoms: _168  and  _169
REMARK   69  A    between atoms: _168  and  _171
REMARK   70  A    between atoms: _171  and  _172
REMARK   71  A    between atoms: _172  and  _173
REMARK   72  A    between atoms: _178  and  _180
REMARK   73  A    between atoms: _180  and  _181
REMARK   74  A    between atoms: _180  and  _183
REMARK   75  A    between atoms: _183  and  _184
REMARK   76  A    between atoms: _190  and  _192
REMARK   77  A    between atoms: _192  and  _193
REMARK   78  A    between atoms: _192  and  _195
REMARK   79  A    between atoms: _197  and  _199
REMARK   80  A    between atoms: _199  and  _200
REMARK   81  A    between atoms: _199  and  _202
REMARK   82  A    between atoms: _205  and  _207
REMARK   83  A    between atoms: _207  and  _208
REMARK   84  A    between atoms: _207  and  _210
REMARK   85  A    between atoms: _210  and  _211
REMARK   86  A    between atoms: _216  and  _218
REMARK   87  A    between atoms: _218  and  _219
REMARK   88  A    between atoms: _222  and  _224
REMARK   89  A    between atoms: _224  and  _225
REMARK   90  A    between atoms: _224  and  _227
REMARK   91  A    between atoms: _227  and  _228
REMARK   92  A    between atoms: _231  and  _233
REMARK   93  A    between atoms: _233  and  _234
REMARK   94  A    between atoms: _233  and  _236
REMARK   95  A    between atoms: _239  and  _241
REMARK   96  A    between atoms: _241  and  _242
REMARK   97  A    between atoms: _241  and  _244
REMARK   98  A    between atoms: _244  and  _245
REMARK   99  A    between atoms: _245  and  _246
REMARK  100  A    between atoms: _251  and  _253
REMARK  101  A    between atoms: _253  and  _254
REMARK  102  A    between atoms: _253  and  _256
REMARK  103  A    between atoms: _256  and  _257
REMARK  104  A    between atoms: _260  and  _262
REMARK  105  A    between atoms: _262  and  _263
REMARK  106  A    between atoms: _262  and  _265
REMARK  107  A    between atoms: _265  and  _266
REMARK  108  A    between atoms: _271  and  _272
REMARK  109  A    between atoms: _274  and  _276
REMARK  110  A    between atoms: _276  and  _277
REMARK  111  A    between atoms: _276  and  _279
REMARK  112  A    between atoms: _279  and  _280
REMARK  113  A    between atoms: _280  and  _281
REMARK  114  A    between atoms: _286  and  _288
REMARK  115  A    between atoms: _288  and  _289
REMARK  116  A    between atoms: _288  and  _291
REMARK  117  A    between atoms: _291  and  _292
REMARK  118  A    between atoms: _292  and  _293
REMARK  119  A    between atoms: _293  and  _294
REMARK  120  A    between atoms: _294  and  _295
REMARK  121  A    between atoms: _299  and  _301
REMARK  122  A    between atoms: _301  and  _302
REMARK  123  A    between atoms: _301  and  _304
REMARK  124  A    between atoms: _304  and  _305
REMARK  125  A    between atoms: _310  and  _311
REMARK  126  A    between atoms: _313  and  _315
REMARK  127  A    between atoms: _315  and  _316
REMARK  128  A    between atoms: _315  and  _318
REMARK  129  A    between atoms: _318  and  _319
REMARK  130  A    between atoms: _319  and  _320
REMARK  131  A    between atoms: _322  and  _324
REMARK  132  A    between atoms: _324  and  _325
REMARK  133  A    between atoms: _324  and  _327
REMARK  134  A    between atoms: _331  and  _332
REMARK  135  A    between atoms: _337  and  _339
REMARK  136  A    between atoms: _339  and  _340
REMARK  137  A    between atoms: _339  and  _342
REMARK  138  A    between atoms: _345  and  _347
REMARK  139  A    between atoms: _347  and  _348
REMARK  140  A    between atoms: _350  and  _352
REMARK  141  A    between atoms: _352  and  _353
REMARK  142  A    between atoms: _352  and  _355
REMARK  143  A    between atoms: _355  and  _356
REMARK  144  A    between atoms: _356  and  _357
REMARK  145  A    between atoms: _360  and  _362
REMARK  146  A    between atoms: _362  and  _363
REMARK  147  A    between atoms: _362  and  _365
REMARK  148  A    between atoms: _365  and  _366
REMARK  149  A    between atoms: _369  and  _371
REMARK  150  A    between atoms: _371  and  _372
REMARK  151  A    between atoms: _371  and  _374
REMARK  152  A    between atoms: _374  and  _375
REMARK  153  A    between atoms: _375  and  _376
REMARK  154  A    between atoms: _381  and  _383
REMARK  155  A    between atoms: _383  and  _384
REMARK  156  A    between atoms: _383  and  _386
REMARK  157  A    between atoms: _386  and  _387
REMARK  158  A    between atoms: _387  and  _388
REMARK  159  A    between atoms: _388  and  _389
REMARK  160  A    between atoms: _389  and  _390
REMARK  161  A    between atoms: _394  and  _396
REMARK  162  A    between atoms: _396  and  _397
REMARK  163  A    between atoms: _396  and  _399
REMARK  164  A    between atoms: _399  and  _400
REMARK  165  A    between atoms: _405  and  _407
REMARK  166  A    between atoms: _407  and  _408
REMARK  167  A    between atoms: _407  and  _410
REMARK  168  A    between atoms: _410  and  _411
REMARK  169  A    between atoms: _414  and  _416
REMARK  170  A    between atoms: _416  and  _417
REMARK  171  A    between atoms: _416  and  _419
REMARK  172  A    between atoms: _419  and  _420
REMARK  173  A    between atoms: _420  and  _421
REMARK  174  A    between atoms: _421  and  _422
REMARK  175  A    between atoms: _431  and  _433
REMARK  176  A    between atoms: _433  and  _434
REMARK  177  A    between atoms: _433  and  _436
REMARK  178  A    between atoms: _436  and  _437
REMARK  179  A    between atoms: _441  and  _442
REMARK  180  A    between atoms: _447  and  _449
REMARK  181  A    between atoms: _449  and  _450
REMARK  182  A    between atoms: _449  and  _452
REMARK  183  A    between atoms: _455  and  _457
REMARK  184  A    between atoms: _457  and  _458
REMARK  185  A    between atoms: _460  and  _462
REMARK  186  A    between atoms: _462  and  _463
REMARK  187  A    between atoms: _466  and  _468
REMARK  188  A    between atoms: _468  and  _469
REMARK  189  A    between atoms: _468  and  _471
REMARK  190  A    between atoms: _471  and  _472
REMARK  191  A    between atoms: _472  and  _473
REMARK  192  A    between atoms: _473  and  _474
REMARK  193  A    between atoms: _483  and  _485
REMARK  194  A    between atoms: _485  and  _486
REMARK  195  A    between atoms: _485  and  _488
REMARK  196  A    between atoms: _488  and  _489
REMARK  197  A    between atoms: _492  and  _494
REMARK  198  A    between atoms: _494  and  _495
REMARK  199  A    between atoms: _494  and  _497
REMARK  200  A    between atoms: _497  and  _498
REMARK  201  A    between atoms: _498  and  _499
REMARK  202  A    between atoms: _501  and  _503
REMARK  203  A    between atoms: _503  and  _504
REMARK  204  A    between atoms: _503  and  _506
REMARK  205  A    between atoms: _506  and  _507
REMARK  206  A    between atoms: _509  and  _511
REMARK  207  A    between atoms: _511  and  _512
REMARK  208  A    between atoms: _511  and  _514
REMARK  209  A    between atoms: _514  and  _515
REMARK  210  A    between atoms: _515  and  _516
REMARK  211  A    between atoms: _516  and  _517
REMARK  212  A    between atoms: _517  and  _518
REMARK  213  A    between atoms: _522  and  _524
REMARK  214  A    between atoms: _524  and  _525
REMARK  215  A    between atoms: _524  and  _527
REMARK  216  A    between atoms: _527  and  _528
REMARK  217  A    between atoms: _528  and  _529
REMARK  218  A    between atoms: _529  and  _530
REMARK  219  A    between atoms: _530  and  _531
REMARK  220  A    between atoms: _535  and  _537
REMARK  221  A    between atoms: _537  and  _538
REMARK  222  A    between atoms: _537  and  _540
REMARK  223  A    between atoms: _540  and  _541
REMARK  224  A    between atoms: _541  and  _542
REMARK  225  A    between atoms: _544  and  _546
REMARK  226  A    between atoms: _546  and  _547
REMARK  227  A    between atoms: _546  and  _549
REMARK  228  A    between atoms: _549  and  _550
REMARK  229  A    between atoms: _552  and  _554
REMARK  230  A    between atoms: _554  and  _555
REMARK  231  A    between atoms: _554  and  _557
REMARK  232  A    between atoms: _557  and  _558
REMARK  233  A    between atoms: _558  and  _559
REMARK  234  A    between atoms: _559  and  _560
REMARK  235  A    between atoms: _560  and  _561
REMARK  236  A    between atoms: _565  and  _567
REMARK  237  A    between atoms: _567  and  _568
REMARK  238  A    between atoms: _567  and  _570
REMARK  239  A    between atoms: _570  and  _571
REMARK  240  A    between atoms: _573  and  _575
REMARK  241  A    between atoms: _575  and  _576
REMARK  242  A    between atoms: _575  and  _578
REMARK  243  A    between atoms: _578  and  _579
REMARK  244  A    between atoms: _583  and  _584
REMARK  245  A    between atoms: _589  and  _591
REMARK  246  A    between atoms: _591  and  _592
REMARK  247  A    between atoms: _591  and  _594
REMARK  248  A    between atoms: _594  and  _595
REMARK  249  A    between atoms: _600  and  _601
REMARK  250  A    between atoms: _603  and  _605
REMARK  251  A    between atoms: _605  and  _606
REMARK  252  A    between atoms: _605  and  _608
REMARK  253  A    between atoms: _608  and  _609
REMARK                            x       y       z     vdW  Elec       q    Type
REMARK                         _______ _______ _______ _____ _____    ______ ____
ROOT
ATOM      1  O   HOH     1      46.802  25.186  36.277  0.00  0.00    +0.000 OA
ENDROOT
TORSDOF 0
REMARK  Name = ../refined-set-2016/1m83/1m83_pocket.pdb
REMARK  253 active torsions:
REMARK  status: ('A' for Active; 'I' for Inactive)
REMARK    1  A    between atoms: _1  and  _3
REMARK    2  A    between atoms: _3  and  _4
REMARK    3  A    between atoms: _3  and  _6
REMARK    4  A    between atoms: _6  and  _7
REMARK    5  A    between atoms: _9  and  _11
REMARK    6  A    between atoms: _11  and  _12
REMARK    7  A    between atoms: _14  and  _16
REMARK    8  A    between atoms: _16  and  _17
REMARK    9  A    between atoms: _16  and  _19
REMARK   10  A    between atoms: _19  and  _20
REMARK   11  A    between atoms: _23  and  _25
REMARK   12  A    between atoms: _25  and  _26
REMARK   13  A    between atoms: _25  and  _28
REMARK   14  A    between atoms: _28  and  _29
REMARK   15  A    between atoms: _29  and  _30
REMARK   16  A    between atoms: _36  and  _37
REMARK   17  A    between atoms: _42  and  _44
REMARK   18  A    between atoms: _44  and  _45
REMARK   19  A    between atoms: _44  and  _47
REMARK   20  A    between atoms: _47  and  _48
REMARK   21  A    between atoms: _50  and  _52
REMARK   22  A    between atoms: _52  and  _53
REMARK   23  A    between atoms: _55  and  _57
REMARK   24  A    between atoms: _57  and  _58
REMARK   25  A    between atoms: _57  and  _60
REMARK   26  A    between atoms: _63  and  _65
REMARK   27  A    between atoms: _65  and  _66
REMARK   28  A    between atoms: _65  and  _68
REMARK   29  A    between atoms: _68  and  _69
REMARK   30  A    between atoms: _72  and  _74
REMARK   31  A    between atoms: _74  and  _75
REMARK   32  A    between atoms: _74  and  _77
REMARK   33  A    between atoms: _77  and  _78
REMARK   34  A    between atoms: _81  and  _83
REMARK   35  A    between atoms: _83  and  _84
REMARK   36  A    between atoms: _83  and  _86
REMARK   37  A    between atoms: _86  and  _87
REMARK   38  A    between atoms: _90  and  _92
REMARK   39  A    between atoms: _92  and  _93
REMARK   40  A    between atoms: _95  and  _97
REMARK   41  A    between atoms: _97  and  _98
REMARK   42  A    between atoms: _97  and  _100
REMARK   43  A    between atoms: _100  and  _101
REMARK   44  A    between atoms: _106  and  _108
REMARK   45  A    between atoms: _108  and  _109
REMARK   46  A    between atoms: _108  and  _111
REMARK   47  A    between atoms: _111  and  _112
REMARK   48  A    between atoms: _117  and  _118
REMARK   49  A    between atoms: _120  and  _122
REMARK   50  A    between atoms: _122  and  _123
REMARK   51  A    between atoms: _122  and  _125
REMARK   52  A    between atoms: _125  and  _126
REMARK   53  A    between atoms: _129  and  _131
REMARK   54  A    between atoms: _131  and  _132
REMARK   55  A    between atoms: _134  and  _136
REMARK   56  A    between atoms: _136  and  _137
REMARK   57  A    between atoms: _140  and  _142
REMARK   58  A    between atoms: _142  and  _143
REMARK   59  A    between atoms: _142  and  _145
REMARK   60  A    between atoms: _145  and  _146
REMARK   61  A    between atoms: _149  and  _151
REMARK   62  A    between atoms: _151  and  _152
REMARK   63  A    between atoms: _151  and  _154
REMARK   64  A    between atoms: _154  and  _155
REMARK   65  A    between atoms: _155  and  _156
REMARK   66  A    between atoms: _156  and  _157
REMARK   67  A    between atoms: _166  and  _168
REMARK   68  A    between atoms: _168  and  _169
REMARK   69  A    between atoms: _168  and  _171
REMARK   70  A    between atoms: _171  and  _172
REMARK   71  A    between atoms: _172  and  _173
REMARK   72  A    between atoms: _178  and  _180
REMARK   73  A    between atoms: _180  and  _181
REMARK   74  A    between atoms: _180  and  _183
REMARK   75  A    between atoms: _183  and  _184
REMARK   76  A    between atoms: _190  and  _192
REMARK   77  A    between atoms: _192  and  _193
REMARK   78  A    between atoms: _192  and  _195
REMARK   79  A    between atoms: _197  and  _199
REMARK   80  A    between atoms: _199  and  _200
REMARK   81  A    between atoms: _199  and  _202
REMARK   82  A    between atoms: _205  and  _207
REMARK   83  A    between atoms: _207  and  _208
REMARK   84  A    between atoms: _207  and  _210
REMARK   85  A    between atoms: _210  and  _211
REMARK   86  A    between atoms: _216  and  _218
REMARK   87  A    between atoms: _218  and  _219
REMARK   88  A    between atoms: _222  and  _224
REMARK   89  A    between atoms: _224  and  _225
REMARK   90  A    between atoms: _224  and  _227
REMARK   91  A    between atoms: _227  and  _228
REMARK   92  A    between atoms: _231  and  _233
REMARK   93  A    between atoms: _233  and  _234
REMARK   94  A    between atoms: _233  and  _236
REMARK   95  A    between atoms: _239  and  _241
REMARK   96  A    between atoms: _241  and  _242
REMARK   97  A    between atoms: _241  and  _244
REMARK   98  A    between atoms: _244  and  _245
REMARK   99  A    between atoms: _245  and  _246
REMARK  100  A    between atoms: _251  and  _253
REMARK  101  A    between atoms: _253  and  _254
REMARK  102  A    between atoms: _253  and  _256
REMARK  103  A    between atoms: _256  and  _257
REMARK  104  A    between atoms: _260  and  _262
REMARK  105  A    between atoms: _262  and  _263
REMARK  106  A    between atoms: _262  and  _265
REMARK  107  A    between atoms: _265  and  _266
REMARK  108  A    between atoms: _271  and  _272
REMARK  109  A    between atoms: _274  and  _276
REMARK  110  A    between atoms: _276  and  _277
REMARK  111  A    between atoms: _276  and  _279
REMARK  112  A    between atoms: _279  and  _280
REMARK  113  A    between atoms: _280  and  _281
REMARK  114  A    between atoms: _286  and  _288
REMARK  115  A    between atoms: _288  and  _289
REMARK  116  A    between atoms: _288  and  _291
REMARK  117  A    between atoms: _291  and  _292
REMARK  118  A    between atoms: _292  and  _293
REMARK  119  A    between atoms: _293  and  _294
REMARK  120  A    between atoms: _294  and  _295
REMARK  121  A    between atoms: _299  and  _301
REMARK  122  A    between atoms: _301  and  _302
REMARK  123  A    between atoms: _301  and  _304
REMARK  124  A    between atoms: _304  and  _305
REMARK  125  A    between atoms: _310  and  _311
REMARK  126  A    between atoms: _313  and  _315
REMARK  127  A    between atoms: _315  and  _316
REMARK  128  A    between atoms: _315  and  _318
REMARK  129  A    between atoms: _318  and  _319
REMARK  130  A    between atoms: _319  and  _320
REMARK  131  A    between atoms: _322  and  _324
REMARK  132  A    between atoms: _324  and  _325
REMARK  133  A    between atoms: _324  and  _327
REMARK  134  A    between atoms: _331  and  _332
REMARK  135  A    between atoms: _337  and  _339
REMARK  136  A    between atoms: _339  and  _340
REMARK  137  A    between atoms: _339  and  _342
REMARK  138  A    between atoms: _345  and  _347
REMARK  139  A    between atoms: _347  and  _348
REMARK  140  A    between atoms: _350  and  _352
REMARK  141  A    between atoms: _352  and  _353
REMARK  142  A    between atoms: _352  and  _355
REMARK  143  A    between atoms: _355  and  _356
REMARK  144  A    between atoms: _356  and  _357
REMARK  145  A    between atoms: _360  and  _362
REMARK  146  A    between atoms: _362  and  _363
REMARK  147  A    between atoms: _362  and  _365
REMARK  148  A    between atoms: _365  and  _366
REMARK  149  A    between atoms: _369  and  _371
REMARK  150  A    between atoms: _371  and  _372
REMARK  151  A    between atoms: _371  and  _374
REMARK  152  A    between atoms: _374  and  _375
REMARK  153  A    between atoms: _375  and  _376
REMARK  154  A    between atoms: _381  and  _383
REMARK  155  A    between atoms: _383  and  _384
REMARK  156  A    between atoms: _383  and  _386
REMARK  157  A    between atoms: _386  and  _387
REMARK  158  A    between atoms: _387  and  _388
REMARK  159  A    between atoms: _388  and  _389
REMARK  160  A    between atoms: _389  and  _390
REMARK  161  A    between atoms: _394  and  _396
REMARK  162  A    between atoms: _396  and  _397
REMARK  163  A    between atoms: _396  and  _399
REMARK  164  A    between atoms: _399  and  _400
REMARK  165  A    between atoms: _405  and  _407
REMARK  166  A    between atoms: _407  and  _408
REMARK  167  A    between atoms: _407  and  _410
REMARK  168  A    between atoms: _410  and  _411
REMARK  169  A    between atoms: _414  and  _416
REMARK  170  A    between atoms: _416  and  _417
REMARK  171  A    between atoms: _416  and  _419
REMARK  172  A    between atoms: _419  and  _420
REMARK  173  A    between atoms: _420  and  _421
REMARK  174  A    between atoms: _421  and  _422
REMARK  175  A    between atoms: _431  and  _433
REMARK  176  A    between atoms: _433  and  _434
REMARK  177  A    between atoms: _433  and  _436
REMARK  178  A    between atoms: _436  and  _437
REMARK  179  A    between atoms: _441  and  _442
REMARK  180  A    between atoms: _447  and  _449
REMARK  181  A    between atoms: _449  and  _450
REMARK  182  A    between atoms: _449  and  _452
REMARK  183  A    between atoms: _455  and  _457
REMARK  184  A    between atoms: _457  and  _458
REMARK  185  A    between atoms: _460  and  _462
REMARK  186  A    between atoms: _462  and  _463
REMARK  187  A    between atoms: _466  and  _468
REMARK  188  A    between atoms: _468  and  _469
REMARK  189  A    between atoms: _468  and  _471
REMARK  190  A    between atoms: _471  and  _472
REMARK  191  A    between atoms: _472  and  _473
REMARK  192  A    between atoms: _473  and  _474
REMARK  193  A    between atoms: _483  and  _485
REMARK  194  A    between atoms: _485  and  _486
REMARK  195  A    between atoms: _485  and  _488
REMARK  196  A    between atoms: _488  and  _489
REMARK  197  A    between atoms: _492  and  _494
REMARK  198  A    between atoms: _494  and  _495
REMARK  199  A    between atoms: _494  and  _497
REMARK  200  A    between atoms: _497  and  _498
REMARK  201  A    between atoms: _498  and  _499
REMARK  202  A    between atoms: _501  and  _503
REMARK  203  A    between atoms: _503  and  _504
REMARK  204  A    between atoms: _503  and  _506
REMARK  205  A    between atoms: _506  and  _507
REMARK  206  A    between atoms: _509  and  _511
REMARK  207  A    between atoms: _511  and  _512
REMARK  208  A    between atoms: _511  and  _514
REMARK  209  A    between atoms: _514  and  _515
REMARK  210  A    between atoms: _515  and  _516
REMARK  211  A    between atoms: _516  and  _517
REMARK  212  A    between atoms: _517  and  _518
REMARK  213  A    between atoms: _522  and  _524
REMARK  214  A    between atoms: _524  and  _525
REMARK  215  A    between atoms: _524  and  _527
REMARK  216  A    between atoms: _527  and  _528
REMARK  217  A    between atoms: _528  and  _529
REMARK  218  A    between atoms: _529  and  _530
REMARK  219  A    between atoms: _530  and  _531
REMARK  220  A    between atoms: _535  and  _537
REMARK  221  A    between atoms: _537  and  _538
REMARK  222  A    between atoms: _537  and  _540
REMARK  223  A    between atoms: _540  and  _541
REMARK  224  A    between atoms: _541  and  _542
REMARK  225  A    between atoms: _544  and  _546
REMARK  226  A    between atoms: _546  and  _547
REMARK  227  A    between atoms: _546  and  _549
REMARK  228  A    between atoms: _549  and  _550
REMARK  229  A    between atoms: _552  and  _554
REMARK  230  A    between atoms: _554  and  _555
REMARK  231  A    between atoms: _554  and  _557
REMARK  232  A    between atoms: _557  and  _558
REMARK  233  A    between atoms: _558  and  _559
REMARK  234  A    between atoms: _559  and  _560
REMARK  235  A    between atoms: _560  and  _561
REMARK  236  A    between atoms: _565  and  _567
REMARK  237  A    between atoms: _567  and  _568
REMARK  238  A    between atoms: _567  and  _570
REMARK  239  A    between atoms: _570  and  _571
REMARK  240  A    between atoms: _573  and  _575
REMARK  241  A    between atoms: _575  and  _576
REMARK  242  A    between atoms: _575  and  _578
REMARK  243  A    between atoms: _578  and  _579
REMARK  244  A    between atoms: _583  and  _584
REMARK  245  A    between atoms: _589  and  _591
REMARK  246  A    between atoms: _591  and  _592
REMARK  247  A    between atoms: _591  and  _594
REMARK  248  A    between atoms: _594  and  _595
REMARK  249  A    between atoms: _600  and  _601
REMARK  250  A    between atoms: _603  and  _605
REMARK  251  A    between atoms: _605  and  _606
REMARK  252  A    between atoms: _605  and  _608
REMARK  253  A    between atoms: _608  and  _609
REMARK                            x       y       z     vdW  Elec       q    Type
REMARK                         _______ _______ _______ _____ _____    ______ ____
ROOT
ATOM      1  O   HOH     1      46.323  18.258  39.654  0.00  0.00    +0.000 OA
ENDROOT
TORSDOF 0
REMARK  Name = ../refined-set-2016/1m83/1m83_pocket.pdb
REMARK  253 active torsions:
REMARK  status: ('A' for Active; 'I' for Inactive)
REMARK    1  A    between atoms: _1  and  _3
REMARK    2  A    between atoms: _3  and  _4
REMARK    3  A    between atoms: _3  and  _6
REMARK    4  A    between atoms: _6  and  _7
REMARK    5  A    between atoms: _9  and  _11
REMARK    6  A    between atoms: _11  and  _12
REMARK    7  A    between atoms: _14  and  _16
REMARK    8  A    between atoms: _16  and  _17
REMARK    9  A    between atoms: _16  and  _19
REMARK   10  A    between atoms: _19  and  _20
REMARK   11  A    between atoms: _23  and  _25
REMARK   12  A    between atoms: _25  and  _26
REMARK   13  A    between atoms: _25  and  _28
REMARK   14  A    between atoms: _28  and  _29
REMARK   15  A    between atoms: _29  and  _30
REMARK   16  A    between atoms: _36  and  _37
REMARK   17  A    between atoms: _42  and  _44
REMARK   18  A    between atoms: _44  and  _45
REMARK   19  A    between atoms: _44  and  _47
REMARK   20  A    between atoms: _47  and  _48
REMARK   21  A    between atoms: _50  and  _52
REMARK   22  A    between atoms: _52  and  _53
REMARK   23  A    between atoms: _55  and  _57
REMARK   24  A    between atoms: _57  and  _58
REMARK   25  A    between atoms: _57  and  _60
REMARK   26  A    between atoms: _63  and  _65
REMARK   27  A    between atoms: _65  and  _66
REMARK   28  A    between atoms: _65  and  _68
REMARK   29  A    between atoms: _68  and  _69
REMARK   30  A    between atoms: _72  and  _74
REMARK   31  A    between atoms: _74  and  _75
REMARK   32  A    between atoms: _74  and  _77
REMARK   33  A    between atoms: _77  and  _78
REMARK   34  A    between atoms: _81  and  _83
REMARK   35  A    between atoms: _83  and  _84
REMARK   36  A    between atoms: _83  and  _86
REMARK   37  A    between atoms: _86  and  _87
REMARK   38  A    between atoms: _90  and  _92
REMARK   39  A    between atoms: _92  and  _93
REMARK   40  A    between atoms: _95  and  _97
REMARK   41  A    between atoms: _97  and  _98
REMARK   42  A    between atoms: _97  and  _100
REMARK   43  A    between atoms: _100  and  _101
REMARK   44  A    between atoms: _106  and  _108
REMARK   45  A    between atoms: _108  and  _109
REMARK   46  A    between atoms: _108  and  _111
REMARK   47  A    between atoms: _111  and  _112
REMARK   48  A    between atoms: _117  and  _118
REMARK   49  A    between atoms: _120  and  _122
REMARK   50  A    between atoms: _122  and  _123
REMARK   51  A    between atoms: _122  and  _125
REMARK   52  A    between atoms: _125  and  _126
REMARK   53  A    between atoms: _129  and  _131
REMARK   54  A    between atoms: _131  and  _132
REMARK   55  A    between atoms: _134  and  _136
REMARK   56  A    between atoms: _136  and  _137
REMARK   57  A    between atoms: _140  and  _142
REMARK   58  A    between atoms: _142  and  _143
REMARK   59  A    between atoms: _142  and  _145
REMARK   60  A    between atoms: _145  and  _146
REMARK   61  A    between atoms: _149  and  _151
REMARK   62  A    between atoms: _151  and  _152
REMARK   63  A    between atoms: _151  and  _154
REMARK   64  A    between atoms: _154  and  _155
REMARK   65  A    between atoms: _155  and  _156
REMARK   66  A    between atoms: _156  and  _157
REMARK   67  A    between atoms: _166  and  _168
REMARK   68  A    between atoms: _168  and  _169
REMARK   69  A    between atoms: _168  and  _171
REMARK   70  A    between atoms: _171  and  _172
REMARK   71  A    between atoms: _172  and  _173
REMARK   72  A    between atoms: _178  and  _180
REMARK   73  A    between atoms: _180  and  _181
REMARK   74  A    between atoms: _180  and  _183
REMARK   75  A    between atoms: _183  and  _184
REMARK   76  A    between atoms: _190  and  _192
REMARK   77  A    between atoms: _192  and  _193
REMARK   78  A    between atoms: _192  and  _195
REMARK   79  A    between atoms: _197  and  _199
REMARK   80  A    between atoms: _199  and  _200
REMARK   81  A    between atoms: _199  and  _202
REMARK   82  A    between atoms: _205  and  _207
REMARK   83  A    between atoms: _207  and  _208
REMARK   84  A    between atoms: _207  and  _210
REMARK   85  A    between atoms: _210  and  _211
REMARK   86  A    between atoms: _216  and  _218
REMARK   87  A    between atoms: _218  and  _219
REMARK   88  A    between atoms: _222  and  _224
REMARK   89  A    between atoms: _224  and  _225
REMARK   90  A    between atoms: _224  and  _227
REMARK   91  A    between atoms: _227  and  _228
REMARK   92  A    between atoms: _231  and  _233
REMARK   93  A    between atoms: _233  and  _234
REMARK   94  A    between atoms: _233  and  _236
REMARK   95  A    between atoms: _239  and  _241
REMARK   96  A    between atoms: _241  and  _242
REMARK   97  A    between atoms: _241  and  _244
REMARK   98  A    between atoms: _244  and  _245
REMARK   99  A    between atoms: _245  and  _246
REMARK  100  A    between atoms: _251  and  _253
REMARK  101  A    between atoms: _253  and  _254
REMARK  102  A    between atoms: _253  and  _256
REMARK  103  A    between atoms: _256  and  _257
REMARK  104  A    between atoms: _260  and  _262
REMARK  105  A    between atoms: _262  and  _263
REMARK  106  A    between atoms: _262  and  _265
REMARK  107  A    between atoms: _265  and  _266
REMARK  108  A    between atoms: _271  and  _272
REMARK  109  A    between atoms: _274  and  _276
REMARK  110  A    between atoms: _276  and  _277
REMARK  111  A    between atoms: _276  and  _279
REMARK  112  A    between atoms: _279  and  _280
REMARK  113  A    between atoms: _280  and  _281
REMARK  114  A    between atoms: _286  and  _288
REMARK  115  A    between atoms: _288  and  _289
REMARK  116  A    between atoms: _288  and  _291
REMARK  117  A    between atoms: _291  and  _292
REMARK  118  A    between atoms: _292  and  _293
REMARK  119  A    between atoms: _293  and  _294
REMARK  120  A    between atoms: _294  and  _295
REMARK  121  A    between atoms: _299  and  _301
REMARK  122  A    between atoms: _301  and  _302
REMARK  123  A    between atoms: _301  and  _304
REMARK  124  A    between atoms: _304  and  _305
REMARK  125  A    between atoms: _310  and  _311
REMARK  126  A    between atoms: _313  and  _315
REMARK  127  A    between atoms: _315  and  _316
REMARK  128  A    between atoms: _315  and  _318
REMARK  129  A    between atoms: _318  and  _319
REMARK  130  A    between atoms: _319  and  _320
REMARK  131  A    between atoms: _322  and  _324
REMARK  132  A    between atoms: _324  and  _325
REMARK  133  A    between atoms: _324  and  _327
REMARK  134  A    between atoms: _331  and  _332
REMARK  135  A    between atoms: _337  and  _339
REMARK  136  A    between atoms: _339  and  _340
REMARK  137  A    between atoms: _339  and  _342
REMARK  138  A    between atoms: _345  and  _347
REMARK  139  A    between atoms: _347  and  _348
REMARK  140  A    between atoms: _350  and  _352
REMARK  141  A    between atoms: _352  and  _353
REMARK  142  A    between atoms: _352  and  _355
REMARK  143  A    between atoms: _355  and  _356
REMARK  144  A    between atoms: _356  and  _357
REMARK  145  A    between atoms: _360  and  _362
REMARK  146  A    between atoms: _362  and  _363
REMARK  147  A    between atoms: _362  and  _365
REMARK  148  A    between atoms: _365  and  _366
REMARK  149  A    between atoms: _369  and  _371
REMARK  150  A    between atoms: _371  and  _372
REMARK  151  A    between atoms: _371  and  _374
REMARK  152  A    between atoms: _374  and  _375
REMARK  153  A    between atoms: _375  and  _376
REMARK  154  A    between atoms: _381  and  _383
REMARK  155  A    between atoms: _383  and  _384
REMARK  156  A    between atoms: _383  and  _386
REMARK  157  A    between atoms: _386  and  _387
REMARK  158  A    between atoms: _387  and  _388
REMARK  159  A    between atoms: _388  and  _389
REMARK  160  A    between atoms: _389  and  _390
REMARK  161  A    between atoms: _394  and  _396
REMARK  162  A    between atoms: _396  and  _397
REMARK  163  A    between atoms: _396  and  _399
REMARK  164  A    between atoms: _399  and  _400
REMARK  165  A    between atoms: _405  and  _407
REMARK  166  A    between atoms: _407  and  _408
REMARK  167  A    between atoms: _407  and  _410
REMARK  168  A    between atoms: _410  and  _411
REMARK  169  A    between atoms: _414  and  _416
REMARK  170  A    between atoms: _416  and  _417
REMARK  171  A    between atoms: _416  and  _419
REMARK  172  A    between atoms: _419  and  _420
REMARK  173  A    between atoms: _420  and  _421
REMARK  174  A    between atoms: _421  and  _422
REMARK  175  A    between atoms: _431  and  _433
REMARK  176  A    between atoms: _433  and  _434
REMARK  177  A    between atoms: _433  and  _436
REMARK  178  A    between atoms: _436  and  _437
REMARK  179  A    between atoms: _441  and  _442
REMARK  180  A    between atoms: _447  and  _449
REMARK  181  A    between atoms: _449  and  _450
REMARK  182  A    between atoms: _449  and  _452
REMARK  183  A    between atoms: _455  and  _457
REMARK  184  A    between atoms: _457  and  _458
REMARK  185  A    between atoms: _460  and  _462
REMARK  186  A    between atoms: _462  and  _463
REMARK  187  A    between atoms: _466  and  _468
REMARK  188  A    between atoms: _468  and  _469
REMARK  189  A    between atoms: _468  and  _471
REMARK  190  A    between atoms: _471  and  _472
REMARK  191  A    between atoms: _472  and  _473
REMARK  192  A    between atoms: _473  and  _474
REMARK  193  A    between atoms: _483  and  _485
REMARK  194  A    between atoms: _485  and  _486
REMARK  195  A    between atoms: _485  and  _488
REMARK  196  A    between atoms: _488  and  _489
REMARK  197  A    between atoms: _492  and  _494
REMARK  198  A    between atoms: _494  and  _495
REMARK  199  A    between atoms: _494  and  _497
REMARK  200  A    between atoms: _497  and  _498
REMARK  201  A    between atoms: _498  and  _499
REMARK  202  A    between atoms: _501  and  _503
REMARK  203  A    between atoms: _503  and  _504
REMARK  204  A    between atoms: _503  and  _506
REMARK  205  A    between atoms: _506  and  _507
REMARK  206  A    between atoms: _509  and  _511
REMARK  207  A    between atoms: _511  and  _512
REMARK  208  A    between atoms: _511  and  _514
REMARK  209  A    between atoms: _514  and  _515
REMARK  210  A    between atoms: _515  and  _516
REMARK  211  A    between atoms: _516  and  _517
REMARK  212  A    between atoms: _517  and  _518
REMARK  213  A    between atoms: _522  and  _524
REMARK  214  A    between atoms: _524  and  _525
REMARK  215  A    between atoms: _524  and  _527
REMARK  216  A    between atoms: _527  and  _528
REMARK  217  A    between atoms: _528  and  _529
REMARK  218  A    between atoms: _529  and  _530
REMARK  219  A    between atoms: _530  and  _531
REMARK  220  A    between atoms: _535  and  _537
REMARK  221  A    between atoms: _537  and  _538
REMARK  222  A    between atoms: _537  and  _540
REMARK  223  A    between atoms: _540  and  _541
REMARK  224  A    between atoms: _541  and  _542
REMARK  225  A    between atoms: _544  and  _546
REMARK  226  A    between atoms: _546  and  _547
REMARK  227  A    between atoms: _546  and  _549
REMARK  228  A    between atoms: _549  and  _550
REMARK  229  A    between atoms: _552  and  _554
REMARK  230  A    between atoms: _554  and  _555
REMARK  231  A    between atoms: _554  and  _557
REMARK  232  A    between atoms: _557  and  _558
REMARK  233  A    between atoms: _558  and  _559
REMARK  234  A    between atoms: _559  and  _560
REMARK  235  A    between atoms: _560  and  _561
REMARK  236  A    between atoms: _565  and  _567
REMARK  237  A    between atoms: _567  and  _568
REMARK  238  A    between atoms: _567  and  _570
REMARK  239  A    between atoms: _570  and  _571
REMARK  240  A    between atoms: _573  and  _575
REMARK  241  A    between atoms: _575  and  _576
REMARK  242  A    between atoms: _575  and  _578
REMARK  243  A    between atoms: _578  and  _579
REMARK  244  A    between atoms: _583  and  _584
REMARK  245  A    between atoms: _589  and  _591
REMARK  246  A    between atoms: _591  and  _592
REMARK  247  A    between atoms: _591  and  _594
REMARK  248  A    between atoms: _594  and  _595
REMARK  249  A    between atoms: _600  and  _601
REMARK  250  A    between atoms: _603  and  _605
REMARK  251  A    between atoms: _605  and  _606
REMARK  252  A    between atoms: _605  and  _608
REMARK  253  A    between atoms: _608  and  _609
REMARK                            x       y       z     vdW  Elec       q    Type
REMARK                         _______ _______ _______ _____ _____    ______ ____
ROOT
ATOM      1  O   HOH     1      58.305  22.943  42.764  0.00  0.00    +0.000 OA
ENDROOT
TORSDOF 0
REMARK  Name = ../refined-set-2016/1m83/1m83_pocket.pdb
REMARK  253 active torsions:
REMARK  status: ('A' for Active; 'I' for Inactive)
REMARK    1  A    between atoms: _1  and  _3
REMARK    2  A    between atoms: _3  and  _4
REMARK    3  A    between atoms: _3  and  _6
REMARK    4  A    between atoms: _6  and  _7
REMARK    5  A    between atoms: _9  and  _11
REMARK    6  A    between atoms: _11  and  _12
REMARK    7  A    between atoms: _14  and  _16
REMARK    8  A    between atoms: _16  and  _17
REMARK    9  A    between atoms: _16  and  _19
REMARK   10  A    between atoms: _19  and  _20
REMARK   11  A    between atoms: _23  and  _25
REMARK   12  A    between atoms: _25  and  _26
REMARK   13  A    between atoms: _25  and  _28
REMARK   14  A    between atoms: _28  and  _29
REMARK   15  A    between atoms: _29  and  _30
REMARK   16  A    between atoms: _36  and  _37
REMARK   17  A    between atoms: _42  and  _44
REMARK   18  A    between atoms: _44  and  _45
REMARK   19  A    between atoms: _44  and  _47
REMARK   20  A    between atoms: _47  and  _48
REMARK   21  A    between atoms: _50  and  _52
REMARK   22  A    between atoms: _52  and  _53
REMARK   23  A    between atoms: _55  and  _57
REMARK   24  A    between atoms: _57  and  _58
REMARK   25  A    between atoms: _57  and  _60
REMARK   26  A    between atoms: _63  and  _65
REMARK   27  A    between atoms: _65  and  _66
REMARK   28  A    between atoms: _65  and  _68
REMARK   29  A    between atoms: _68  and  _69
REMARK   30  A    between atoms: _72  and  _74
REMARK   31  A    between atoms: _74  and  _75
REMARK   32  A    between atoms: _74  and  _77
REMARK   33  A    between atoms: _77  and  _78
REMARK   34  A    between atoms: _81  and  _83
REMARK   35  A    between atoms: _83  and  _84
REMARK   36  A    between atoms: _83  and  _86
REMARK   37  A    between atoms: _86  and  _87
REMARK   38  A    between atoms: _90  and  _92
REMARK   39  A    between atoms: _92  and  _93
REMARK   40  A    between atoms: _95  and  _97
REMARK   41  A    between atoms: _97  and  _98
REMARK   42  A    between atoms: _97  and  _100
REMARK   43  A    between atoms: _100  and  _101
REMARK   44  A    between atoms: _106  and  _108
REMARK   45  A    between atoms: _108  and  _109
REMARK   46  A    between atoms: _108  and  _111
REMARK   47  A    between atoms: _111  and  _112
REMARK   48  A    between atoms: _117  and  _118
REMARK   49  A    between atoms: _120  and  _122
REMARK   50  A    between atoms: _122  and  _123
REMARK   51  A    between atoms: _122  and  _125
REMARK   52  A    between atoms: _125  and  _126
REMARK   53  A    between atoms: _129  and  _131
REMARK   54  A    between atoms: _131  and  _132
REMARK   55  A    between atoms: _134  and  _136
REMARK   56  A    between atoms: _136  and  _137
REMARK   57  A    between atoms: _140  and  _142
REMARK   58  A    between atoms: _142  and  _143
REMARK   59  A    between atoms: _142  and  _145
REMARK   60  A    between atoms: _145  and  _146
REMARK   61  A    between atoms: _149  and  _151
REMARK   62  A    between atoms: _151  and  _152
REMARK   63  A    between atoms: _151  and  _154
REMARK   64  A    between atoms: _154  and  _155
REMARK   65  A    between atoms: _155  and  _156
REMARK   66  A    between atoms: _156  and  _157
REMARK   67  A    between atoms: _166  and  _168
REMARK   68  A    between atoms: _168  and  _169
REMARK   69  A    between atoms: _168  and  _171
REMARK   70  A    between atoms: _171  and  _172
REMARK   71  A    between atoms: _172  and  _173
REMARK   72  A    between atoms: _178  and  _180
REMARK   73  A    between atoms: _180  and  _181
REMARK   74  A    between atoms: _180  and  _183
REMARK   75  A    between atoms: _183  and  _184
REMARK   76  A    between atoms: _190  and  _192
REMARK   77  A    between atoms: _192  and  _193
REMARK   78  A    between atoms: _192  and  _195
REMARK   79  A    between atoms: _197  and  _199
REMARK   80  A    between atoms: _199  and  _200
REMARK   81  A    between atoms: _199  and  _202
REMARK   82  A    between atoms: _205  and  _207
REMARK   83  A    between atoms: _207  and  _208
REMARK   84  A    between atoms: _207  and  _210
REMARK   85  A    between atoms: _210  and  _211
REMARK   86  A    between atoms: _216  and  _218
REMARK   87  A    between atoms: _218  and  _219
REMARK   88  A    between atoms: _222  and  _224
REMARK   89  A    between atoms: _224  and  _225
REMARK   90  A    between atoms: _224  and  _227
REMARK   91  A    between atoms: _227  and  _228
REMARK   92  A    between atoms: _231  and  _233
REMARK   93  A    between atoms: _233  and  _234
REMARK   94  A    between atoms: _233  and  _236
REMARK   95  A    between atoms: _239  and  _241
REMARK   96  A    between atoms: _241  and  _242
REMARK   97  A    between atoms: _241  and  _244
REMARK   98  A    between atoms: _244  and  _245
REMARK   99  A    between atoms: _245  and  _246
REMARK  100  A    between atoms: _251  and  _253
REMARK  101  A    between atoms: _253  and  _254
REMARK  102  A    between atoms: _253  and  _256
REMARK  103  A    between atoms: _256  and  _257
REMARK  104  A    between atoms: _260  and  _262
REMARK  105  A    between atoms: _262  and  _263
REMARK  106  A    between atoms: _262  and  _265
REMARK  107  A    between atoms: _265  and  _266
REMARK  108  A    between atoms: _271  and  _272
REMARK  109  A    between atoms: _274  and  _276
REMARK  110  A    between atoms: _276  and  _277
REMARK  111  A    between atoms: _276  and  _279
REMARK  112  A    between atoms: _279  and  _280
REMARK  113  A    between atoms: _280  and  _281
REMARK  114  A    between atoms: _286  and  _288
REMARK  115  A    between atoms: _288  and  _289
REMARK  116  A    between atoms: _288  and  _291
REMARK  117  A    between atoms: _291  and  _292
REMARK  118  A    between atoms: _292  and  _293
REMARK  119  A    between atoms: _293  and  _294
REMARK  120  A    between atoms: _294  and  _295
REMARK  121  A    between atoms: _299  and  _301
REMARK  122  A    between atoms: _301  and  _302
REMARK  123  A    between atoms: _301  and  _304
REMARK  124  A    between atoms: _304  and  _305
REMARK  125  A    between atoms: _310  and  _311
REMARK  126  A    between atoms: _313  and  _315
REMARK  127  A    between atoms: _315  and  _316
REMARK  128  A    between atoms: _315  and  _318
REMARK  129  A    between atoms: _318  and  _319
REMARK  130  A    between atoms: _319  and  _320
REMARK  131  A    between atoms: _322  and  _324
REMARK  132  A    between atoms: _324  and  _325
REMARK  133  A    between atoms: _324  and  _327
REMARK  134  A    between atoms: _331  and  _332
REMARK  135  A    between atoms: _337  and  _339
REMARK  136  A    between atoms: _339  and  _340
REMARK  137  A    between atoms: _339  and  _342
REMARK  138  A    between atoms: _345  and  _347
REMARK  139  A    between atoms: _347  and  _348
REMARK  140  A    between atoms: _350  and  _352
REMARK  141  A    between atoms: _352  and  _353
REMARK  142  A    between atoms: _352  and  _355
REMARK  143  A    between atoms: _355  and  _356
REMARK  144  A    between atoms: _356  and  _357
REMARK  145  A    between atoms: _360  and  _362
REMARK  146  A    between atoms: _362  and  _363
REMARK  147  A    between atoms: _362  and  _365
REMARK  148  A    between atoms: _365  and  _366
REMARK  149  A    between atoms: _369  and  _371
REMARK  150  A    between atoms: _371  and  _372
REMARK  151  A    between atoms: _371  and  _374
REMARK  152  A    between atoms: _374  and  _375
REMARK  153  A    between atoms: _375  and  _376
REMARK  154  A    between atoms: _381  and  _383
REMARK  155  A    between atoms: _383  and  _384
REMARK  156  A    between atoms: _383  and  _386
REMARK  157  A    between atoms: _386  and  _387
REMARK  158  A    between atoms: _387  and  _388
REMARK  159  A    between atoms: _388  and  _389
REMARK  160  A    between atoms: _389  and  _390
REMARK  161  A    between atoms: _394  and  _396
REMARK  162  A    between atoms: _396  and  _397
REMARK  163  A    between atoms: _396  and  _399
REMARK  164  A    between atoms: _399  and  _400
REMARK  165  A    between atoms: _405  and  _407
REMARK  166  A    between atoms: _407  and  _408
REMARK  167  A    between atoms: _407  and  _410
REMARK  168  A    between atoms: _410  and  _411
REMARK  169  A    between atoms: _414  and  _416
REMARK  170  A    between atoms: _416  and  _417
REMARK  171  A    between atoms: _416  and  _419
REMARK  172  A    between atoms: _419  and  _420
REMARK  173  A    between atoms: _420  and  _421
REMARK  174  A    between atoms: _421  and  _422
REMARK  175  A    between atoms: _431  and  _433
REMARK  176  A    between atoms: _433  and  _434
REMARK  177  A    between atoms: _433  and  _436
REMARK  178  A    between atoms: _436  and  _437
REMARK  179  A    between atoms: _441  and  _442
REMARK  180  A    between atoms: _447  and  _449
REMARK  181  A    between atoms: _449  and  _450
REMARK  182  A    between atoms: _449  and  _452
REMARK  183  A    between atoms: _455  and  _457
REMARK  184  A    between atoms: _457  and  _458
REMARK  185  A    between atoms: _460  and  _462
REMARK  186  A    between atoms: _462  and  _463
REMARK  187  A    between atoms: _466  and  _468
REMARK  188  A    between atoms: _468  and  _469
REMARK  189  A    between atoms: _468  and  _471
REMARK  190  A    between atoms: _471  and  _472
REMARK  191  A    between atoms: _472  and  _473
REMARK  192  A    between atoms: _473  and  _474
REMARK  193  A    between atoms: _483  and  _485
REMARK  194  A    between atoms: _485  and  _486
REMARK  195  A    between atoms: _485  and  _488
REMARK  196  A    between atoms: _488  and  _489
REMARK  197  A    between atoms: _492  and  _494
REMARK  198  A    between atoms: _494  and  _495
REMARK  199  A    between atoms: _494  and  _497
REMARK  200  A    between atoms: _497  and  _498
REMARK  201  A    between atoms: _498  and  _499
REMARK  202  A    between atoms: _501  and  _503
REMARK  203  A    between atoms: _503  and  _504
REMARK  204  A    between atoms: _503  and  _506
REMARK  205  A    between atoms: _506  and  _507
REMARK  206  A    between atoms: _509  and  _511
REMARK  207  A    between atoms: _511  and  _512
REMARK  208  A    between atoms: _511  and  _514
REMARK  209  A    between atoms: _514  and  _515
REMARK  210  A    between atoms: _515  and  _516
REMARK  211  A    between atoms: _516  and  _517
REMARK  212  A    between atoms: _517  and  _518
REMARK  213  A    between atoms: _522  and  _524
REMARK  214  A    between atoms: _524  and  _525
REMARK  215  A    between atoms: _524  and  _527
REMARK  216  A    between atoms: _527  and  _528
REMARK  217  A    between atoms: _528  and  _529
REMARK  218  A    between atoms: _529  and  _530
REMARK  219  A    between atoms: _530  and  _531
REMARK  220  A    between atoms: _535  and  _537
REMARK  221  A    between atoms: _537  and  _538
REMARK  222  A    between atoms: _537  and  _540
REMARK  223  A    between atoms: _540  and  _541
REMARK  224  A    between atoms: _541  and  _542
REMARK  225  A    between atoms: _544  and  _546
REMARK  226  A    between atoms: _546  and  _547
REMARK  227  A    between atoms: _546  and  _549
REMARK  228  A    between atoms: _549  and  _550
REMARK  229  A    between atoms: _552  and  _554
REMARK  230  A    between atoms: _554  and  _555
REMARK  231  A    between atoms: _554  and  _557
REMARK  232  A    between atoms: _557  and  _558
REMARK  233  A    between atoms: _558  and  _559
REMARK  234  A    between atoms: _559  and  _560
REMARK  235  A    between atoms: _560  and  _561
REMARK  236  A    between atoms: _565  and  _567
REMARK  237  A    between atoms: _567  and  _568
REMARK  238  A    between atoms: _567  and  _570
REMARK  239  A    between atoms: _570  and  _571
REMARK  240  A    between atoms: _573  and  _575
REMARK  241  A    between atoms: _575  and  _576
REMARK  242  A    between atoms: _575  and  _578
REMARK  243  A    between atoms: _578  and  _579
REMARK  244  A    between atoms: _583  and  _584
REMARK  245  A    between atoms: _589  and  _591
REMARK  246  A    between atoms: _591  and  _592
REMARK  247  A    between atoms: _591  and  _594
REMARK  248  A    between atoms: _594  and  _595
REMARK  249  A    between atoms: _600  and  _601
REMARK  250  A    between atoms: _603  and  _605
REMARK  251  A    between atoms: _605  and  _606
REMARK  252  A    between atoms: _605  and  _608
REMARK  253  A    between atoms: _608  and  _609
REMARK                            x       y       z     vdW  Elec       q    Type
REMARK                         _______ _______ _______ _____ _____    ______ ____
ROOT
ATOM      1  O   HOH     1      53.218  30.905  35.639  0.00  0.00    +0.000 OA
ENDROOT
TORSDOF 0
REMARK  Name = ../refined-set-2016/1m83/1m83_pocket.pdb
REMARK  253 active torsions:
REMARK  status: ('A' for Active; 'I' for Inactive)
REMARK    1  A    between atoms: _1  and  _3
REMARK    2  A    between atoms: _3  and  _4
REMARK    3  A    between atoms: _3  and  _6
REMARK    4  A    between atoms: _6  and  _7
REMARK    5  A    between atoms: _9  and  _11
REMARK    6  A    between atoms: _11  and  _12
REMARK    7  A    between atoms: _14  and  _16
REMARK    8  A    between atoms: _16  and  _17
REMARK    9  A    between atoms: _16  and  _19
REMARK   10  A    between atoms: _19  and  _20
REMARK   11  A    between atoms: _23  and  _25
REMARK   12  A    between atoms: _25  and  _26
REMARK   13  A    between atoms: _25  and  _28
REMARK   14  A    between atoms: _28  and  _29
REMARK   15  A    between atoms: _29  and  _30
REMARK   16  A    between atoms: _36  and  _37
REMARK   17  A    between atoms: _42  and  _44
REMARK   18  A    between atoms: _44  and  _45
REMARK   19  A    between atoms: _44  and  _47
REMARK   20  A    between atoms: _47  and  _48
REMARK   21  A    between atoms: _50  and  _52
REMARK   22  A    between atoms: _52  and  _53
REMARK   23  A    between atoms: _55  and  _57
REMARK   24  A    between atoms: _57  and  _58
REMARK   25  A    between atoms: _57  and  _60
REMARK   26  A    between atoms: _63  and  _65
REMARK   27  A    between atoms: _65  and  _66
REMARK   28  A    between atoms: _65  and  _68
REMARK   29  A    between atoms: _68  and  _69
REMARK   30  A    between atoms: _72  and  _74
REMARK   31  A    between atoms: _74  and  _75
REMARK   32  A    between atoms: _74  and  _77
REMARK   33  A    between atoms: _77  and  _78
REMARK   34  A    between atoms: _81  and  _83
REMARK   35  A    between atoms: _83  and  _84
REMARK   36  A    between atoms: _83  and  _86
REMARK   37  A    between atoms: _86  and  _87
REMARK   38  A    between atoms: _90  and  _92
REMARK   39  A    between atoms: _92  and  _93
REMARK   40  A    between atoms: _95  and  _97
REMARK   41  A    between atoms: _97  and  _98
REMARK   42  A    between atoms: _97  and  _100
REMARK   43  A    between atoms: _100  and  _101
REMARK   44  A    between atoms: _106  and  _108
REMARK   45  A    between atoms: _108  and  _109
REMARK   46  A    between atoms: _108  and  _111
REMARK   47  A    between atoms: _111  and  _112
REMARK   48  A    between atoms: _117  and  _118
REMARK   49  A    between atoms: _120  and  _122
REMARK   50  A    between atoms: _122  and  _123
REMARK   51  A    between atoms: _122  and  _125
REMARK   52  A    between atoms: _125  and  _126
REMARK   53  A    between atoms: _129  and  _131
REMARK   54  A    between atoms: _131  and  _132
REMARK   55  A    between atoms: _134  and  _136
REMARK   56  A    between atoms: _136  and  _137
REMARK   57  A    between atoms: _140  and  _142
REMARK   58  A    between atoms: _142  and  _143
REMARK   59  A    between atoms: _142  and  _145
REMARK   60  A    between atoms: _145  and  _146
REMARK   61  A    between atoms: _149  and  _151
REMARK   62  A    between atoms: _151  and  _152
REMARK   63  A    between atoms: _151  and  _154
REMARK   64  A    between atoms: _154  and  _155
REMARK   65  A    between atoms: _155  and  _156
REMARK   66  A    between atoms: _156  and  _157
REMARK   67  A    between atoms: _166  and  _168
REMARK   68  A    between atoms: _168  and  _169
REMARK   69  A    between atoms: _168  and  _171
REMARK   70  A    between atoms: _171  and  _172
REMARK   71  A    between atoms: _172  and  _173
REMARK   72  A    between atoms: _178  and  _180
REMARK   73  A    between atoms: _180  and  _181
REMARK   74  A    between atoms: _180  and  _183
REMARK   75  A    between atoms: _183  and  _184
REMARK   76  A    between atoms: _190  and  _192
REMARK   77  A    between atoms: _192  and  _193
REMARK   78  A    between atoms: _192  and  _195
REMARK   79  A    between atoms: _197  and  _199
REMARK   80  A    between atoms: _199  and  _200
REMARK   81  A    between atoms: _199  and  _202
REMARK   82  A    between atoms: _205  and  _207
REMARK   83  A    between atoms: _207  and  _208
REMARK   84  A    between atoms: _207  and  _210
REMARK   85  A    between atoms: _210  and  _211
REMARK   86  A    between atoms: _216  and  _218
REMARK   87  A    between atoms: _218  and  _219
REMARK   88  A    between atoms: _222  and  _224
REMARK   89  A    between atoms: _224  and  _225
REMARK   90  A    between atoms: _224  and  _227
REMARK   91  A    between atoms: _227  and  _228
REMARK   92  A    between atoms: _231  and  _233
REMARK   93  A    between atoms: _233  and  _234
REMARK   94  A    between atoms: _233  and  _236
REMARK   95  A    between atoms: _239  and  _241
REMARK   96  A    between atoms: _241  and  _242
REMARK   97  A    between atoms: _241  and  _244
REMARK   98  A    between atoms: _244  and  _245
REMARK   99  A    between atoms: _245  and  _246
REMARK  100  A    between atoms: _251  and  _253
REMARK  101  A    between atoms: _253  and  _254
REMARK  102  A    between atoms: _253  and  _256
REMARK  103  A    between atoms: _256  and  _257
REMARK  104  A    between atoms: _260  and  _262
REMARK  105  A    between atoms: _262  and  _263
REMARK  106  A    between atoms: _262  and  _265
REMARK  107  A    between atoms: _265  and  _266
REMARK  108  A    between atoms: _271  and  _272
REMARK  109  A    between atoms: _274  and  _276
REMARK  110  A    between atoms: _276  and  _277
REMARK  111  A    between atoms: _276  and  _279
REMARK  112  A    between atoms: _279  and  _280
REMARK  113  A    between atoms: _280  and  _281
REMARK  114  A    between atoms: _286  and  _288
REMARK  115  A    between atoms: _288  and  _289
REMARK  116  A    between atoms: _288  and  _291
REMARK  117  A    between atoms: _291  and  _292
REMARK  118  A    between atoms: _292  and  _293
REMARK  119  A    between atoms: _293  and  _294
REMARK  120  A    between atoms: _294  and  _295
REMARK  121  A    between atoms: _299  and  _301
REMARK  122  A    between atoms: _301  and  _302
REMARK  123  A    between atoms: _301  and  _304
REMARK  124  A    between atoms: _304  and  _305
REMARK  125  A    between atoms: _310  and  _311
REMARK  126  A    between atoms: _313  and  _315
REMARK  127  A    between atoms: _315  and  _316
REMARK  128  A    between atoms: _315  and  _318
REMARK  129  A    between atoms: _318  and  _319
REMARK  130  A    between atoms: _319  and  _320
REMARK  131  A    between atoms: _322  and  _324
REMARK  132  A    between atoms: _324  and  _325
REMARK  133  A    between atoms: _324  and  _327
REMARK  134  A    between atoms: _331  and  _332
REMARK  135  A    between atoms: _337  and  _339
REMARK  136  A    between atoms: _339  and  _340
REMARK  137  A    between atoms: _339  and  _342
REMARK  138  A    between atoms: _345  and  _347
REMARK  139  A    between atoms: _347  and  _348
REMARK  140  A    between atoms: _350  and  _352
REMARK  141  A    between atoms: _352  and  _353
REMARK  142  A    between atoms: _352  and  _355
REMARK  143  A    between atoms: _355  and  _356
REMARK  144  A    between atoms: _356  and  _357
REMARK  145  A    between atoms: _360  and  _362
REMARK  146  A    between atoms: _362  and  _363
REMARK  147  A    between atoms: _362  and  _365
REMARK  148  A    between atoms: _365  and  _366
REMARK  149  A    between atoms: _369  and  _371
REMARK  150  A    between atoms: _371  and  _372
REMARK  151  A    between atoms: _371  and  _374
REMARK  152  A    between atoms: _374  and  _375
REMARK  153  A    between atoms: _375  and  _376
REMARK  154  A    between atoms: _381  and  _383
REMARK  155  A    between atoms: _383  and  _384
REMARK  156  A    between atoms: _383  and  _386
REMARK  157  A    between atoms: _386  and  _387
REMARK  158  A    between atoms: _387  and  _388
REMARK  159  A    between atoms: _388  and  _389
REMARK  160  A    between atoms: _389  and  _390
REMARK  161  A    between atoms: _394  and  _396
REMARK  162  A    between atoms: _396  and  _397
REMARK  163  A    between atoms: _396  and  _399
REMARK  164  A    between atoms: _399  and  _400
REMARK  165  A    between atoms: _405  and  _407
REMARK  166  A    between atoms: _407  and  _408
REMARK  167  A    between atoms: _407  and  _410
REMARK  168  A    between atoms: _410  and  _411
REMARK  169  A    between atoms: _414  and  _416
REMARK  170  A    between atoms: _416  and  _417
REMARK  171  A    between atoms: _416  and  _419
REMARK  172  A    between atoms: _419  and  _420
REMARK  173  A    between atoms: _420  and  _421
REMARK  174  A    between atoms: _421  and  _422
REMARK  175  A    between atoms: _431  and  _433
REMARK  176  A    between atoms: _433  and  _434
REMARK  177  A    between atoms: _433  and  _436
REMARK  178  A    between atoms: _436  and  _437
REMARK  179  A    between atoms: _441  and  _442
REMARK  180  A    between atoms: _447  and  _449
REMARK  181  A    between atoms: _449  and  _450
REMARK  182  A    between atoms: _449  and  _452
REMARK  183  A    between atoms: _455  and  _457
REMARK  184  A    between atoms: _457  and  _458
REMARK  185  A    between atoms: _460  and  _462
REMARK  186  A    between atoms: _462  and  _463
REMARK  187  A    between atoms: _466  and  _468
REMARK  188  A    between atoms: _468  and  _469
REMARK  189  A    between atoms: _468  and  _471
REMARK  190  A    between atoms: _471  and  _472
REMARK  191  A    between atoms: _472  and  _473
REMARK  192  A    between atoms: _473  and  _474
REMARK  193  A    between atoms: _483  and  _485
REMARK  194  A    between atoms: _485  and  _486
REMARK  195  A    between atoms: _485  and  _488
REMARK  196  A    between atoms: _488  and  _489
REMARK  197  A    between atoms: _492  and  _494
REMARK  198  A    between atoms: _494  and  _495
REMARK  199  A    between atoms: _494  and  _497
REMARK  200  A    between atoms: _497  and  _498
REMARK  201  A    between atoms: _498  and  _499
REMARK  202  A    between atoms: _501  and  _503
REMARK  203  A    between atoms: _503  and  _504
REMARK  204  A    between atoms: _503  and  _506
REMARK  205  A    between atoms: _506  and  _507
REMARK  206  A    between atoms: _509  and  _511
REMARK  207  A    between atoms: _511  and  _512
REMARK  208  A    between atoms: _511  and  _514
REMARK  209  A    between atoms: _514  and  _515
REMARK  210  A    between atoms: _515  and  _516
REMARK  211  A    between atoms: _516  and  _517
REMARK  212  A    between atoms: _517  and  _518
REMARK  213  A    between atoms: _522  and  _524
REMARK  214  A    between atoms: _524  and  _525
REMARK  215  A    between atoms: _524  and  _527
REMARK  216  A    between atoms: _527  and  _528
REMARK  217  A    between atoms: _528  and  _529
REMARK  218  A    between atoms: _529  and  _530
REMARK  219  A    between atoms: _530  and  _531
REMARK  220  A    between atoms: _535  and  _537
REMARK  221  A    between atoms: _537  and  _538
REMARK  222  A    between atoms: _537  and  _540
REMARK  223  A    between atoms: _540  and  _541
REMARK  224  A    between atoms: _541  and  _542
REMARK  225  A    between atoms: _544  and  _546
REMARK  226  A    between atoms: _546  and  _547
REMARK  227  A    between atoms: _546  and  _549
REMARK  228  A    between atoms: _549  and  _550
REMARK  229  A    between atoms: _552  and  _554
REMARK  230  A    between atoms: _554  and  _555
REMARK  231  A    between atoms: _554  and  _557
REMARK  232  A    between atoms: _557  and  _558
REMARK  233  A    between atoms: _558  and  _559
REMARK  234  A    between atoms: _559  and  _560
REMARK  235  A    between atoms: _560  and  _561
REMARK  236  A    between atoms: _565  and  _567
REMARK  237  A    between atoms: _567  and  _568
REMARK  238  A    between atoms: _567  and  _570
REMARK  239  A    between atoms: _570  and  _571
REMARK  240  A    between atoms: _573  and  _575
REMARK  241  A    between atoms: _575  and  _576
REMARK  242  A    between atoms: _575  and  _578
REMARK  243  A    between atoms: _578  and  _579
REMARK  244  A    between atoms: _583  and  _584
REMARK  245  A    between atoms: _589  and  _591
REMARK  246  A    between atoms: _591  and  _592
REMARK  247  A    between atoms: _591  and  _594
REMARK  248  A    between atoms: _594  and  _595
REMARK  249  A    between atoms: _600  and  _601
REMARK  250  A    between atoms: _603  and  _605
REMARK  251  A    between atoms: _605  and  _606
REMARK  252  A    between atoms: _605  and  _608
REMARK  253  A    between atoms: _608  and  _609
REMARK                            x       y       z     vdW  Elec       q    Type
REMARK                         _______ _______ _______ _____ _____    ______ ____
ROOT
ATOM      1  O   HOH     1      55.761  35.492  30.885  0.00  0.00    +0.000 OA
ENDROOT
TORSDOF 0
REMARK  Name = ../refined-set-2016/1m83/1m83_pocket.pdb
REMARK  253 active torsions:
REMARK  status: ('A' for Active; 'I' for Inactive)
REMARK    1  A    between atoms: _1  and  _3
REMARK    2  A    between atoms: _3  and  _4
REMARK    3  A    between atoms: _3  and  _6
REMARK    4  A    between atoms: _6  and  _7
REMARK    5  A    between atoms: _9  and  _11
REMARK    6  A    between atoms: _11  and  _12
REMARK    7  A    between atoms: _14  and  _16
REMARK    8  A    between atoms: _16  and  _17
REMARK    9  A    between atoms: _16  and  _19
REMARK   10  A    between atoms: _19  and  _20
REMARK   11  A    between atoms: _23  and  _25
REMARK   12  A    between atoms: _25  and  _26
REMARK   13  A    between atoms: _25  and  _28
REMARK   14  A    between atoms: _28  and  _29
REMARK   15  A    between atoms: _29  and  _30
REMARK   16  A    between atoms: _36  and  _37
REMARK   17  A    between atoms: _42  and  _44
REMARK   18  A    between atoms: _44  and  _45
REMARK   19  A    between atoms: _44  and  _47
REMARK   20  A    between atoms: _47  and  _48
REMARK   21  A    between atoms: _50  and  _52
REMARK   22  A    between atoms: _52  and  _53
REMARK   23  A    between atoms: _55  and  _57
REMARK   24  A    between atoms: _57  and  _58
REMARK   25  A    between atoms: _57  and  _60
REMARK   26  A    between atoms: _63  and  _65
REMARK   27  A    between atoms: _65  and  _66
REMARK   28  A    between atoms: _65  and  _68
REMARK   29  A    between atoms: _68  and  _69
REMARK   30  A    between atoms: _72  and  _74
REMARK   31  A    between atoms: _74  and  _75
REMARK   32  A    between atoms: _74  and  _77
REMARK   33  A    between atoms: _77  and  _78
REMARK   34  A    between atoms: _81  and  _83
REMARK   35  A    between atoms: _83  and  _84
REMARK   36  A    between atoms: _83  and  _86
REMARK   37  A    between atoms: _86  and  _87
REMARK   38  A    between atoms: _90  and  _92
REMARK   39  A    between atoms: _92  and  _93
REMARK   40  A    between atoms: _95  and  _97
REMARK   41  A    between atoms: _97  and  _98
REMARK   42  A    between atoms: _97  and  _100
REMARK   43  A    between atoms: _100  and  _101
REMARK   44  A    between atoms: _106  and  _108
REMARK   45  A    between atoms: _108  and  _109
REMARK   46  A    between atoms: _108  and  _111
REMARK   47  A    between atoms: _111  and  _112
REMARK   48  A    between atoms: _117  and  _118
REMARK   49  A    between atoms: _120  and  _122
REMARK   50  A    between atoms: _122  and  _123
REMARK   51  A    between atoms: _122  and  _125
REMARK   52  A    between atoms: _125  and  _126
REMARK   53  A    between atoms: _129  and  _131
REMARK   54  A    between atoms: _131  and  _132
REMARK   55  A    between atoms: _134  and  _136
REMARK   56  A    between atoms: _136  and  _137
REMARK   57  A    between atoms: _140  and  _142
REMARK   58  A    between atoms: _142  and  _143
REMARK   59  A    between atoms: _142  and  _145
REMARK   60  A    between atoms: _145  and  _146
REMARK   61  A    between atoms: _149  and  _151
REMARK   62  A    between atoms: _151  and  _152
REMARK   63  A    between atoms: _151  and  _154
REMARK   64  A    between atoms: _154  and  _155
REMARK   65  A    between atoms: _155  and  _156
REMARK   66  A    between atoms: _156  and  _157
REMARK   67  A    between atoms: _166  and  _168
REMARK   68  A    between atoms: _168  and  _169
REMARK   69  A    between atoms: _168  and  _171
REMARK   70  A    between atoms: _171  and  _172
REMARK   71  A    between atoms: _172  and  _173
REMARK   72  A    between atoms: _178  and  _180
REMARK   73  A    between atoms: _180  and  _181
REMARK   74  A    between atoms: _180  and  _183
REMARK   75  A    between atoms: _183  and  _184
REMARK   76  A    between atoms: _190  and  _192
REMARK   77  A    between atoms: _192  and  _193
REMARK   78  A    between atoms: _192  and  _195
REMARK   79  A    between atoms: _197  and  _199
REMARK   80  A    between atoms: _199  and  _200
REMARK   81  A    between atoms: _199  and  _202
REMARK   82  A    between atoms: _205  and  _207
REMARK   83  A    between atoms: _207  and  _208
REMARK   84  A    between atoms: _207  and  _210
REMARK   85  A    between atoms: _210  and  _211
REMARK   86  A    between atoms: _216  and  _218
REMARK   87  A    between atoms: _218  and  _219
REMARK   88  A    between atoms: _222  and  _224
REMARK   89  A    between atoms: _224  and  _225
REMARK   90  A    between atoms: _224  and  _227
REMARK   91  A    between atoms: _227  and  _228
REMARK   92  A    between atoms: _231  and  _233
REMARK   93  A    between atoms: _233  and  _234
REMARK   94  A    between atoms: _233  and  _236
REMARK   95  A    between atoms: _239  and  _241
REMARK   96  A    between atoms: _241  and  _242
REMARK   97  A    between atoms: _241  and  _244
REMARK   98  A    between atoms: _244  and  _245
REMARK   99  A    between atoms: _245  and  _246
REMARK  100  A    between atoms: _251  and  _253
REMARK  101  A    between atoms: _253  and  _254
REMARK  102  A    between atoms: _253  and  _256
REMARK  103  A    between atoms: _256  and  _257
REMARK  104  A    between atoms: _260  and  _262
REMARK  105  A    between atoms: _262  and  _263
REMARK  106  A    between atoms: _262  and  _265
REMARK  107  A    between atoms: _265  and  _266
REMARK  108  A    between atoms: _271  and  _272
REMARK  109  A    between atoms: _274  and  _276
REMARK  110  A    between atoms: _276  and  _277
REMARK  111  A    between atoms: _276  and  _279
REMARK  112  A    between atoms: _279  and  _280
REMARK  113  A    between atoms: _280  and  _281
REMARK  114  A    between atoms: _286  and  _288
REMARK  115  A    between atoms: _288  and  _289
REMARK  116  A    between atoms: _288  and  _291
REMARK  117  A    between atoms: _291  and  _292
REMARK  118  A    between atoms: _292  and  _293
REMARK  119  A    between atoms: _293  and  _294
REMARK  120  A    between atoms: _294  and  _295
REMARK  121  A    between atoms: _299  and  _301
REMARK  122  A    between atoms: _301  and  _302
REMARK  123  A    between atoms: _301  and  _304
REMARK  124  A    between atoms: _304  and  _305
REMARK  125  A    between atoms: _310  and  _311
REMARK  126  A    between atoms: _313  and  _315
REMARK  127  A    between atoms: _315  and  _316
REMARK  128  A    between atoms: _315  and  _318
REMARK  129  A    between atoms: _318  and  _319
REMARK  130  A    between atoms: _319  and  _320
REMARK  131  A    between atoms: _322  and  _324
REMARK  132  A    between atoms: _324  and  _325
REMARK  133  A    between atoms: _324  and  _327
REMARK  134  A    between atoms: _331  and  _332
REMARK  135  A    between atoms: _337  and  _339
REMARK  136  A    between atoms: _339  and  _340
REMARK  137  A    between atoms: _339  and  _342
REMARK  138  A    between atoms: _345  and  _347
REMARK  139  A    between atoms: _347  and  _348
REMARK  140  A    between atoms: _350  and  _352
REMARK  141  A    between atoms: _352  and  _353
REMARK  142  A    between atoms: _352  and  _355
REMARK  143  A    between atoms: _355  and  _356
REMARK  144  A    between atoms: _356  and  _357
REMARK  145  A    between atoms: _360  and  _362
REMARK  146  A    between atoms: _362  and  _363
REMARK  147  A    between atoms: _362  and  _365
REMARK  148  A    between atoms: _365  and  _366
REMARK  149  A    between atoms: _369  and  _371
REMARK  150  A    between atoms: _371  and  _372
REMARK  151  A    between atoms: _371  and  _374
REMARK  152  A    between atoms: _374  and  _375
REMARK  153  A    between atoms: _375  and  _376
REMARK  154  A    between atoms: _381  and  _383
REMARK  155  A    between atoms: _383  and  _384
REMARK  156  A    between atoms: _383  and  _386
REMARK  157  A    between atoms: _386  and  _387
REMARK  158  A    between atoms: _387  and  _388
REMARK  159  A    between atoms: _388  and  _389
REMARK  160  A    between atoms: _389  and  _390
REMARK  161  A    between atoms: _394  and  _396
REMARK  162  A    between atoms: _396  and  _397
REMARK  163  A    between atoms: _396  and  _399
REMARK  164  A    between atoms: _399  and  _400
REMARK  165  A    between atoms: _405  and  _407
REMARK  166  A    between atoms: _407  and  _408
REMARK  167  A    between atoms: _407  and  _410
REMARK  168  A    between atoms: _410  and  _411
REMARK  169  A    between atoms: _414  and  _416
REMARK  170  A    between atoms: _416  and  _417
REMARK  171  A    between atoms: _416  and  _419
REMARK  172  A    between atoms: _419  and  _420
REMARK  173  A    between atoms: _420  and  _421
REMARK  174  A    between atoms: _421  and  _422
REMARK  175  A    between atoms: _431  and  _433
REMARK  176  A    between atoms: _433  and  _434
REMARK  177  A    between atoms: _433  and  _436
REMARK  178  A    between atoms: _436  and  _437
REMARK  179  A    between atoms: _441  and  _442
REMARK  180  A    between atoms: _447  and  _449
REMARK  181  A    between atoms: _449  and  _450
REMARK  182  A    between atoms: _449  and  _452
REMARK  183  A    between atoms: _455  and  _457
REMARK  184  A    between atoms: _457  and  _458
REMARK  185  A    between atoms: _460  and  _462
REMARK  186  A    between atoms: _462  and  _463
REMARK  187  A    between atoms: _466  and  _468
REMARK  188  A    between atoms: _468  and  _469
REMARK  189  A    between atoms: _468  and  _471
REMARK  190  A    between atoms: _471  and  _472
REMARK  191  A    between atoms: _472  and  _473
REMARK  192  A    between atoms: _473  and  _474
REMARK  193  A    between atoms: _483  and  _485
REMARK  194  A    between atoms: _485  and  _486
REMARK  195  A    between atoms: _485  and  _488
REMARK  196  A    between atoms: _488  and  _489
REMARK  197  A    between atoms: _492  and  _494
REMARK  198  A    between atoms: _494  and  _495
REMARK  199  A    between atoms: _494  and  _497
REMARK  200  A    between atoms: _497  and  _498
REMARK  201  A    between atoms: _498  and  _499
REMARK  202  A    between atoms: _501  and  _503
REMARK  203  A    between atoms: _503  and  _504
REMARK  204  A    between atoms: _503  and  _506
REMARK  205  A    between atoms: _506  and  _507
REMARK  206  A    between atoms: _509  and  _511
REMARK  207  A    between atoms: _511  and  _512
REMARK  208  A    between atoms: _511  and  _514
REMARK  209  A    between atoms: _514  and  _515
REMARK  210  A    between atoms: _515  and  _516
REMARK  211  A    between atoms: _516  and  _517
REMARK  212  A    between atoms: _517  and  _518
REMARK  213  A    between atoms: _522  and  _524
REMARK  214  A    between atoms: _524  and  _525
REMARK  215  A    between atoms: _524  and  _527
REMARK  216  A    between atoms: _527  and  _528
REMARK  217  A    between atoms: _528  and  _529
REMARK  218  A    between atoms: _529  and  _530
REMARK  219  A    between atoms: _530  and  _531
REMARK  220  A    between atoms: _535  and  _537
REMARK  221  A    between atoms: _537  and  _538
REMARK  222  A    between atoms: _537  and  _540
REMARK  223  A    between atoms: _540  and  _541
REMARK  224  A    between atoms: _541  and  _542
REMARK  225  A    between atoms: _544  and  _546
REMARK  226  A    between atoms: _546  and  _547
REMARK  227  A    between atoms: _546  and  _549
REMARK  228  A    between atoms: _549  and  _550
REMARK  229  A    between atoms: _552  and  _554
REMARK  230  A    between atoms: _554  and  _555
REMARK  231  A    between atoms: _554  and  _557
REMARK  232  A    between atoms: _557  and  _558
REMARK  233  A    between atoms: _558  and  _559
REMARK  234  A    between atoms: _559  and  _560
REMARK  235  A    between atoms: _560  and  _561
REMARK  236  A    between atoms: _565  and  _567
REMARK  237  A    between atoms: _567  and  _568
REMARK  238  A    between atoms: _567  and  _570
REMARK  239  A    between atoms: _570  and  _571
REMARK  240  A    between atoms: _573  and  _575
REMARK  241  A    between atoms: _575  and  _576
REMARK  242  A    between atoms: _575  and  _578
REMARK  243  A    between atoms: _578  and  _579
REMARK  244  A    between atoms: _583  and  _584
REMARK  245  A    between atoms: _589  and  _591
REMARK  246  A    between atoms: _591  and  _592
REMARK  247  A    between atoms: _591  and  _594
REMARK  248  A    between atoms: _594  and  _595
REMARK  249  A    between atoms: _600  and  _601
REMARK  250  A    between atoms: _603  and  _605
REMARK  251  A    between atoms: _605  and  _606
REMARK  252  A    between atoms: _605  and  _608
REMARK  253  A    between atoms: _608  and  _609
REMARK                            x       y       z     vdW  Elec       q    Type
REMARK                         _______ _______ _______ _____ _____    ______ ____
ROOT
ATOM      1  O   HOH     1      58.094  36.620  32.982  0.00  0.00    +0.000 OA
ENDROOT
TORSDOF 0
REMARK  Name = ../refined-set-2016/1m83/1m83_pocket.pdb
REMARK  253 active torsions:
REMARK  status: ('A' for Active; 'I' for Inactive)
REMARK    1  A    between atoms: _1  and  _3
REMARK    2  A    between atoms: _3  and  _4
REMARK    3  A    between atoms: _3  and  _6
REMARK    4  A    between atoms: _6  and  _7
REMARK    5  A    between atoms: _9  and  _11
REMARK    6  A    between atoms: _11  and  _12
REMARK    7  A    between atoms: _14  and  _16
REMARK    8  A    between atoms: _16  and  _17
REMARK    9  A    between atoms: _16  and  _19
REMARK   10  A    between atoms: _19  and  _20
REMARK   11  A    between atoms: _23  and  _25
REMARK   12  A    between atoms: _25  and  _26
REMARK   13  A    between atoms: _25  and  _28
REMARK   14  A    between atoms: _28  and  _29
REMARK   15  A    between atoms: _29  and  _30
REMARK   16  A    between atoms: _36  and  _37
REMARK   17  A    between atoms: _42  and  _44
REMARK   18  A    between atoms: _44  and  _45
REMARK   19  A    between atoms: _44  and  _47
REMARK   20  A    between atoms: _47  and  _48
REMARK   21  A    between atoms: _50  and  _52
REMARK   22  A    between atoms: _52  and  _53
REMARK   23  A    between atoms: _55  and  _57
REMARK   24  A    between atoms: _57  and  _58
REMARK   25  A    between atoms: _57  and  _60
REMARK   26  A    between atoms: _63  and  _65
REMARK   27  A    between atoms: _65  and  _66
REMARK   28  A    between atoms: _65  and  _68
REMARK   29  A    between atoms: _68  and  _69
REMARK   30  A    between atoms: _72  and  _74
REMARK   31  A    between atoms: _74  and  _75
REMARK   32  A    between atoms: _74  and  _77
REMARK   33  A    between atoms: _77  and  _78
REMARK   34  A    between atoms: _81  and  _83
REMARK   35  A    between atoms: _83  and  _84
REMARK   36  A    between atoms: _83  and  _86
REMARK   37  A    between atoms: _86  and  _87
REMARK   38  A    between atoms: _90  and  _92
REMARK   39  A    between atoms: _92  and  _93
REMARK   40  A    between atoms: _95  and  _97
REMARK   41  A    between atoms: _97  and  _98
REMARK   42  A    between atoms: _97  and  _100
REMARK   43  A    between atoms: _100  and  _101
REMARK   44  A    between atoms: _106  and  _108
REMARK   45  A    between atoms: _108  and  _109
REMARK   46  A    between atoms: _108  and  _111
REMARK   47  A    between atoms: _111  and  _112
REMARK   48  A    between atoms: _117  and  _118
REMARK   49  A    between atoms: _120  and  _122
REMARK   50  A    between atoms: _122  and  _123
REMARK   51  A    between atoms: _122  and  _125
REMARK   52  A    between atoms: _125  and  _126
REMARK   53  A    between atoms: _129  and  _131
REMARK   54  A    between atoms: _131  and  _132
REMARK   55  A    between atoms: _134  and  _136
REMARK   56  A    between atoms: _136  and  _137
REMARK   57  A    between atoms: _140  and  _142
REMARK   58  A    between atoms: _142  and  _143
REMARK   59  A    between atoms: _142  and  _145
REMARK   60  A    between atoms: _145  and  _146
REMARK   61  A    between atoms: _149  and  _151
REMARK   62  A    between atoms: _151  and  _152
REMARK   63  A    between atoms: _151  and  _154
REMARK   64  A    between atoms: _154  and  _155
REMARK   65  A    between atoms: _155  and  _156
REMARK   66  A    between atoms: _156  and  _157
REMARK   67  A    between atoms: _166  and  _168
REMARK   68  A    between atoms: _168  and  _169
REMARK   69  A    between atoms: _168  and  _171
REMARK   70  A    between atoms: _171  and  _172
REMARK   71  A    between atoms: _172  and  _173
REMARK   72  A    between atoms: _178  and  _180
REMARK   73  A    between atoms: _180  and  _181
REMARK   74  A    between atoms: _180  and  _183
REMARK   75  A    between atoms: _183  and  _184
REMARK   76  A    between atoms: _190  and  _192
REMARK   77  A    between atoms: _192  and  _193
REMARK   78  A    between atoms: _192  and  _195
REMARK   79  A    between atoms: _197  and  _199
REMARK   80  A    between atoms: _199  and  _200
REMARK   81  A    between atoms: _199  and  _202
REMARK   82  A    between atoms: _205  and  _207
REMARK   83  A    between atoms: _207  and  _208
REMARK   84  A    between atoms: _207  and  _210
REMARK   85  A    between atoms: _210  and  _211
REMARK   86  A    between atoms: _216  and  _218
REMARK   87  A    between atoms: _218  and  _219
REMARK   88  A    between atoms: _222  and  _224
REMARK   89  A    between atoms: _224  and  _225
REMARK   90  A    between atoms: _224  and  _227
REMARK   91  A    between atoms: _227  and  _228
REMARK   92  A    between atoms: _231  and  _233
REMARK   93  A    between atoms: _233  and  _234
REMARK   94  A    between atoms: _233  and  _236
REMARK   95  A    between atoms: _239  and  _241
REMARK   96  A    between atoms: _241  and  _242
REMARK   97  A    between atoms: _241  and  _244
REMARK   98  A    between atoms: _244  and  _245
REMARK   99  A    between atoms: _245  and  _246
REMARK  100  A    between atoms: _251  and  _253
REMARK  101  A    between atoms: _253  and  _254
REMARK  102  A    between atoms: _253  and  _256
REMARK  103  A    between atoms: _256  and  _257
REMARK  104  A    between atoms: _260  and  _262
REMARK  105  A    between atoms: _262  and  _263
REMARK  106  A    between atoms: _262  and  _265
REMARK  107  A    between atoms: _265  and  _266
REMARK  108  A    between atoms: _271  and  _272
REMARK  109  A    between atoms: _274  and  _276
REMARK  110  A    between atoms: _276  and  _277
REMARK  111  A    between atoms: _276  and  _279
REMARK  112  A    between atoms: _279  and  _280
REMARK  113  A    between atoms: _280  and  _281
REMARK  114  A    between atoms: _286  and  _288
REMARK  115  A    between atoms: _288  and  _289
REMARK  116  A    between atoms: _288  and  _291
REMARK  117  A    between atoms: _291  and  _292
REMARK  118  A    between atoms: _292  and  _293
REMARK  119  A    between atoms: _293  and  _294
REMARK  120  A    between atoms: _294  and  _295
REMARK  121  A    between atoms: _299  and  _301
REMARK  122  A    between atoms: _301  and  _302
REMARK  123  A    between atoms: _301  and  _304
REMARK  124  A    between atoms: _304  and  _305
REMARK  125  A    between atoms: _310  and  _311
REMARK  126  A    between atoms: _313  and  _315
REMARK  127  A    between atoms: _315  and  _316
REMARK  128  A    between atoms: _315  and  _318
REMARK  129  A    between atoms: _318  and  _319
REMARK  130  A    between atoms: _319  and  _320
REMARK  131  A    between atoms: _322  and  _324
REMARK  132  A    between atoms: _324  and  _325
REMARK  133  A    between atoms: _324  and  _327
REMARK  134  A    between atoms: _331  and  _332
REMARK  135  A    between atoms: _337  and  _339
REMARK  136  A    between atoms: _339  and  _340
REMARK  137  A    between atoms: _339  and  _342
REMARK  138  A    between atoms: _345  and  _347
REMARK  139  A    between atoms: _347  and  _348
REMARK  140  A    between atoms: _350  and  _352
REMARK  141  A    between atoms: _352  and  _353
REMARK  142  A    between atoms: _352  and  _355
REMARK  143  A    between atoms: _355  and  _356
REMARK  144  A    between atoms: _356  and  _357
REMARK  145  A    between atoms: _360  and  _362
REMARK  146  A    between atoms: _362  and  _363
REMARK  147  A    between atoms: _362  and  _365
REMARK  148  A    between atoms: _365  and  _366
REMARK  149  A    between atoms: _369  and  _371
REMARK  150  A    between atoms: _371  and  _372
REMARK  151  A    between atoms: _371  and  _374
REMARK  152  A    between atoms: _374  and  _375
REMARK  153  A    between atoms: _375  and  _376
REMARK  154  A    between atoms: _381  and  _383
REMARK  155  A    between atoms: _383  and  _384
REMARK  156  A    between atoms: _383  and  _386
REMARK  157  A    between atoms: _386  and  _387
REMARK  158  A    between atoms: _387  and  _388
REMARK  159  A    between atoms: _388  and  _389
REMARK  160  A    between atoms: _389  and  _390
REMARK  161  A    between atoms: _394  and  _396
REMARK  162  A    between atoms: _396  and  _397
REMARK  163  A    between atoms: _396  and  _399
REMARK  164  A    between atoms: _399  and  _400
REMARK  165  A    between atoms: _405  and  _407
REMARK  166  A    between atoms: _407  and  _408
REMARK  167  A    between atoms: _407  and  _410
REMARK  168  A    between atoms: _410  and  _411
REMARK  169  A    between atoms: _414  and  _416
REMARK  170  A    between atoms: _416  and  _417
REMARK  171  A    between atoms: _416  and  _419
REMARK  172  A    between atoms: _419  and  _420
REMARK  173  A    between atoms: _420  and  _421
REMARK  174  A    between atoms: _421  and  _422
REMARK  175  A    between atoms: _431  and  _433
REMARK  176  A    between atoms: _433  and  _434
REMARK  177  A    between atoms: _433  and  _436
REMARK  178  A    between atoms: _436  and  _437
REMARK  179  A    between atoms: _441  and  _442
REMARK  180  A    between atoms: _447  and  _449
REMARK  181  A    between atoms: _449  and  _450
REMARK  182  A    between atoms: _449  and  _452
REMARK  183  A    between atoms: _455  and  _457
REMARK  184  A    between atoms: _457  and  _458
REMARK  185  A    between atoms: _460  and  _462
REMARK  186  A    between atoms: _462  and  _463
REMARK  187  A    between atoms: _466  and  _468
REMARK  188  A    between atoms: _468  and  _469
REMARK  189  A    between atoms: _468  and  _471
REMARK  190  A    between atoms: _471  and  _472
REMARK  191  A    between atoms: _472  and  _473
REMARK  192  A    between atoms: _473  and  _474
REMARK  193  A    between atoms: _483  and  _485
REMARK  194  A    between atoms: _485  and  _486
REMARK  195  A    between atoms: _485  and  _488
REMARK  196  A    between atoms: _488  and  _489
REMARK  197  A    between atoms: _492  and  _494
REMARK  198  A    between atoms: _494  and  _495
REMARK  199  A    between atoms: _494  and  _497
REMARK  200  A    between atoms: _497  and  _498
REMARK  201  A    between atoms: _498  and  _499
REMARK  202  A    between atoms: _501  and  _503
REMARK  203  A    between atoms: _503  and  _504
REMARK  204  A    between atoms: _503  and  _506
REMARK  205  A    between atoms: _506  and  _507
REMARK  206  A    between atoms: _509  and  _511
REMARK  207  A    between atoms: _511  and  _512
REMARK  208  A    between atoms: _511  and  _514
REMARK  209  A    between atoms: _514  and  _515
REMARK  210  A    between atoms: _515  and  _516
REMARK  211  A    between atoms: _516  and  _517
REMARK  212  A    between atoms: _517  and  _518
REMARK  213  A    between atoms: _522  and  _524
REMARK  214  A    between atoms: _524  and  _525
REMARK  215  A    between atoms: _524  and  _527
REMARK  216  A    between atoms: _527  and  _528
REMARK  217  A    between atoms: _528  and  _529
REMARK  218  A    between atoms: _529  and  _530
REMARK  219  A    between atoms: _530  and  _531
REMARK  220  A    between atoms: _535  and  _537
REMARK  221  A    between atoms: _537  and  _538
REMARK  222  A    between atoms: _537  and  _540
REMARK  223  A    between atoms: _540  and  _541
REMARK  224  A    between atoms: _541  and  _542
REMARK  225  A    between atoms: _544  and  _546
REMARK  226  A    between atoms: _546  and  _547
REMARK  227  A    between atoms: _546  and  _549
REMARK  228  A    between atoms: _549  and  _550
REMARK  229  A    between atoms: _552  and  _554
REMARK  230  A    between atoms: _554  and  _555
REMARK  231  A    between atoms: _554  and  _557
REMARK  232  A    between atoms: _557  and  _558
REMARK  233  A    between atoms: _558  and  _559
REMARK  234  A    between atoms: _559  and  _560
REMARK  235  A    between atoms: _560  and  _561
REMARK  236  A    between atoms: _565  and  _567
REMARK  237  A    between atoms: _567  and  _568
REMARK  238  A    between atoms: _567  and  _570
REMARK  239  A    between atoms: _570  and  _571
REMARK  240  A    between atoms: _573  and  _575
REMARK  241  A    between atoms: _575  and  _576
REMARK  242  A    between atoms: _575  and  _578
REMARK  243  A    between atoms: _578  and  _579
REMARK  244  A    between atoms: _583  and  _584
REMARK  245  A    between atoms: _589  and  _591
REMARK  246  A    between atoms: _591  and  _592
REMARK  247  A    between atoms: _591  and  _594
REMARK  248  A    between atoms: _594  and  _595
REMARK  249  A    between atoms: _600  and  _601
REMARK  250  A    between atoms: _603  and  _605
REMARK  251  A    between atoms: _605  and  _606
REMARK  252  A    between atoms: _605  and  _608
REMARK  253  A    between atoms: _608  and  _609
REMARK                            x       y       z     vdW  Elec       q    Type
REMARK                         _______ _______ _______ _____ _____    ______ ____
ROOT
ATOM      1  O   HOH     1      44.156  20.859  36.975  0.00  0.00    +0.000 OA
ENDROOT
TORSDOF 0
REMARK  Name = ../refined-set-2016/1m83/1m83_pocket.pdb
REMARK  253 active torsions:
REMARK  status: ('A' for Active; 'I' for Inactive)
REMARK    1  A    between atoms: _1  and  _3
REMARK    2  A    between atoms: _3  and  _4
REMARK    3  A    between atoms: _3  and  _6
REMARK    4  A    between atoms: _6  and  _7
REMARK    5  A    between atoms: _9  and  _11
REMARK    6  A    between atoms: _11  and  _12
REMARK    7  A    between atoms: _14  and  _16
REMARK    8  A    between atoms: _16  and  _17
REMARK    9  A    between atoms: _16  and  _19
REMARK   10  A    between atoms: _19  and  _20
REMARK   11  A    between atoms: _23  and  _25
REMARK   12  A    between atoms: _25  and  _26
REMARK   13  A    between atoms: _25  and  _28
REMARK   14  A    between atoms: _28  and  _29
REMARK   15  A    between atoms: _29  and  _30
REMARK   16  A    between atoms: _36  and  _37
REMARK   17  A    between atoms: _42  and  _44
REMARK   18  A    between atoms: _44  and  _45
REMARK   19  A    between atoms: _44  and  _47
REMARK   20  A    between atoms: _47  and  _48
REMARK   21  A    between atoms: _50  and  _52
REMARK   22  A    between atoms: _52  and  _53
REMARK   23  A    between atoms: _55  and  _57
REMARK   24  A    between atoms: _57  and  _58
REMARK   25  A    between atoms: _57  and  _60
REMARK   26  A    between atoms: _63  and  _65
REMARK   27  A    between atoms: _65  and  _66
REMARK   28  A    between atoms: _65  and  _68
REMARK   29  A    between atoms: _68  and  _69
REMARK   30  A    between atoms: _72  and  _74
REMARK   31  A    between atoms: _74  and  _75
REMARK   32  A    between atoms: _74  and  _77
REMARK   33  A    between atoms: _77  and  _78
REMARK   34  A    between atoms: _81  and  _83
REMARK   35  A    between atoms: _83  and  _84
REMARK   36  A    between atoms: _83  and  _86
REMARK   37  A    between atoms: _86  and  _87
REMARK   38  A    between atoms: _90  and  _92
REMARK   39  A    between atoms: _92  and  _93
REMARK   40  A    between atoms: _95  and  _97
REMARK   41  A    between atoms: _97  and  _98
REMARK   42  A    between atoms: _97  and  _100
REMARK   43  A    between atoms: _100  and  _101
REMARK   44  A    between atoms: _106  and  _108
REMARK   45  A    between atoms: _108  and  _109
REMARK   46  A    between atoms: _108  and  _111
REMARK   47  A    between atoms: _111  and  _112
REMARK   48  A    between atoms: _117  and  _118
REMARK   49  A    between atoms: _120  and  _122
REMARK   50  A    between atoms: _122  and  _123
REMARK   51  A    between atoms: _122  and  _125
REMARK   52  A    between atoms: _125  and  _126
REMARK   53  A    between atoms: _129  and  _131
REMARK   54  A    between atoms: _131  and  _132
REMARK   55  A    between atoms: _134  and  _136
REMARK   56  A    between atoms: _136  and  _137
REMARK   57  A    between atoms: _140  and  _142
REMARK   58  A    between atoms: _142  and  _143
REMARK   59  A    between atoms: _142  and  _145
REMARK   60  A    between atoms: _145  and  _146
REMARK   61  A    between atoms: _149  and  _151
REMARK   62  A    between atoms: _151  and  _152
REMARK   63  A    between atoms: _151  and  _154
REMARK   64  A    between atoms: _154  and  _155
REMARK   65  A    between atoms: _155  and  _156
REMARK   66  A    between atoms: _156  and  _157
REMARK   67  A    between atoms: _166  and  _168
REMARK   68  A    between atoms: _168  and  _169
REMARK   69  A    between atoms: _168  and  _171
REMARK   70  A    between atoms: _171  and  _172
REMARK   71  A    between atoms: _172  and  _173
REMARK   72  A    between atoms: _178  and  _180
REMARK   73  A    between atoms: _180  and  _181
REMARK   74  A    between atoms: _180  and  _183
REMARK   75  A    between atoms: _183  and  _184
REMARK   76  A    between atoms: _190  and  _192
REMARK   77  A    between atoms: _192  and  _193
REMARK   78  A    between atoms: _192  and  _195
REMARK   79  A    between atoms: _197  and  _199
REMARK   80  A    between atoms: _199  and  _200
REMARK   81  A    between atoms: _199  and  _202
REMARK   82  A    between atoms: _205  and  _207
REMARK   83  A    between atoms: _207  and  _208
REMARK   84  A    between atoms: _207  and  _210
REMARK   85  A    between atoms: _210  and  _211
REMARK   86  A    between atoms: _216  and  _218
REMARK   87  A    between atoms: _218  and  _219
REMARK   88  A    between atoms: _222  and  _224
REMARK   89  A    between atoms: _224  and  _225
REMARK   90  A    between atoms: _224  and  _227
REMARK   91  A    between atoms: _227  and  _228
REMARK   92  A    between atoms: _231  and  _233
REMARK   93  A    between atoms: _233  and  _234
REMARK   94  A    between atoms: _233  and  _236
REMARK   95  A    between atoms: _239  and  _241
REMARK   96  A    between atoms: _241  and  _242
REMARK   97  A    between atoms: _241  and  _244
REMARK   98  A    between atoms: _244  and  _245
REMARK   99  A    between atoms: _245  and  _246
REMARK  100  A    between atoms: _251  and  _253
REMARK  101  A    between atoms: _253  and  _254
REMARK  102  A    between atoms: _253  and  _256
REMARK  103  A    between atoms: _256  and  _257
REMARK  104  A    between atoms: _260  and  _262
REMARK  105  A    between atoms: _262  and  _263
REMARK  106  A    between atoms: _262  and  _265
REMARK  107  A    between atoms: _265  and  _266
REMARK  108  A    between atoms: _271  and  _272
REMARK  109  A    between atoms: _274  and  _276
REMARK  110  A    between atoms: _276  and  _277
REMARK  111  A    between atoms: _276  and  _279
REMARK  112  A    between atoms: _279  and  _280
REMARK  113  A    between atoms: _280  and  _281
REMARK  114  A    between atoms: _286  and  _288
REMARK  115  A    between atoms: _288  and  _289
REMARK  116  A    between atoms: _288  and  _291
REMARK  117  A    between atoms: _291  and  _292
REMARK  118  A    between atoms: _292  and  _293
REMARK  119  A    between atoms: _293  and  _294
REMARK  120  A    between atoms: _294  and  _295
REMARK  121  A    between atoms: _299  and  _301
REMARK  122  A    between atoms: _301  and  _302
REMARK  123  A    between atoms: _301  and  _304
REMARK  124  A    between atoms: _304  and  _305
REMARK  125  A    between atoms: _310  and  _311
REMARK  126  A    between atoms: _313  and  _315
REMARK  127  A    between atoms: _315  and  _316
REMARK  128  A    between atoms: _315  and  _318
REMARK  129  A    between atoms: _318  and  _319
REMARK  130  A    between atoms: _319  and  _320
REMARK  131  A    between atoms: _322  and  _324
REMARK  132  A    between atoms: _324  and  _325
REMARK  133  A    between atoms: _324  and  _327
REMARK  134  A    between atoms: _331  and  _332
REMARK  135  A    between atoms: _337  and  _339
REMARK  136  A    between atoms: _339  and  _340
REMARK  137  A    between atoms: _339  and  _342
REMARK  138  A    between atoms: _345  and  _347
REMARK  139  A    between atoms: _347  and  _348
REMARK  140  A    between atoms: _350  and  _352
REMARK  141  A    between atoms: _352  and  _353
REMARK  142  A    between atoms: _352  and  _355
REMARK  143  A    between atoms: _355  and  _356
REMARK  144  A    between atoms: _356  and  _357
REMARK  145  A    between atoms: _360  and  _362
REMARK  146  A    between atoms: _362  and  _363
REMARK  147  A    between atoms: _362  and  _365
REMARK  148  A    between atoms: _365  and  _366
REMARK  149  A    between atoms: _369  and  _371
REMARK  150  A    between atoms: _371  and  _372
REMARK  151  A    between atoms: _371  and  _374
REMARK  152  A    between atoms: _374  and  _375
REMARK  153  A    between atoms: _375  and  _376
REMARK  154  A    between atoms: _381  and  _383
REMARK  155  A    between atoms: _383  and  _384
REMARK  156  A    between atoms: _383  and  _386
REMARK  157  A    between atoms: _386  and  _387
REMARK  158  A    between atoms: _387  and  _388
REMARK  159  A    between atoms: _388  and  _389
REMARK  160  A    between atoms: _389  and  _390
REMARK  161  A    between atoms: _394  and  _396
REMARK  162  A    between atoms: _396  and  _397
REMARK  163  A    between atoms: _396  and  _399
REMARK  164  A    between atoms: _399  and  _400
REMARK  165  A    between atoms: _405  and  _407
REMARK  166  A    between atoms: _407  and  _408
REMARK  167  A    between atoms: _407  and  _410
REMARK  168  A    between atoms: _410  and  _411
REMARK  169  A    between atoms: _414  and  _416
REMARK  170  A    between atoms: _416  and  _417
REMARK  171  A    between atoms: _416  and  _419
REMARK  172  A    between atoms: _419  and  _420
REMARK  173  A    between atoms: _420  and  _421
REMARK  174  A    between atoms: _421  and  _422
REMARK  175  A    between atoms: _431  and  _433
REMARK  176  A    between atoms: _433  and  _434
REMARK  177  A    between atoms: _433  and  _436
REMARK  178  A    between atoms: _436  and  _437
REMARK  179  A    between atoms: _441  and  _442
REMARK  180  A    between atoms: _447  and  _449
REMARK  181  A    between atoms: _449  and  _450
REMARK  182  A    between atoms: _449  and  _452
REMARK  183  A    between atoms: _455  and  _457
REMARK  184  A    between atoms: _457  and  _458
REMARK  185  A    between atoms: _460  and  _462
REMARK  186  A    between atoms: _462  and  _463
REMARK  187  A    between atoms: _466  and  _468
REMARK  188  A    between atoms: _468  and  _469
REMARK  189  A    between atoms: _468  and  _471
REMARK  190  A    between atoms: _471  and  _472
REMARK  191  A    between atoms: _472  and  _473
REMARK  192  A    between atoms: _473  and  _474
REMARK  193  A    between atoms: _483  and  _485
REMARK  194  A    between atoms: _485  and  _486
REMARK  195  A    between atoms: _485  and  _488
REMARK  196  A    between atoms: _488  and  _489
REMARK  197  A    between atoms: _492  and  _494
REMARK  198  A    between atoms: _494  and  _495
REMARK  199  A    between atoms: _494  and  _497
REMARK  200  A    between atoms: _497  and  _498
REMARK  201  A    between atoms: _498  and  _499
REMARK  202  A    between atoms: _501  and  _503
REMARK  203  A    between atoms: _503  and  _504
REMARK  204  A    between atoms: _503  and  _506
REMARK  205  A    between atoms: _506  and  _507
REMARK  206  A    between atoms: _509  and  _511
REMARK  207  A    between atoms: _511  and  _512
REMARK  208  A    between atoms: _511  and  _514
REMARK  209  A    between atoms: _514  and  _515
REMARK  210  A    between atoms: _515  and  _516
REMARK  211  A    between atoms: _516  and  _517
REMARK  212  A    between atoms: _517  and  _518
REMARK  213  A    between atoms: _522  and  _524
REMARK  214  A    between atoms: _524  and  _525
REMARK  215  A    between atoms: _524  and  _527
REMARK  216  A    between atoms: _527  and  _528
REMARK  217  A    between atoms: _528  and  _529
REMARK  218  A    between atoms: _529  and  _530
REMARK  219  A    between atoms: _530  and  _531
REMARK  220  A    between atoms: _535  and  _537
REMARK  221  A    between atoms: _537  and  _538
REMARK  222  A    between atoms: _537  and  _540
REMARK  223  A    between atoms: _540  and  _541
REMARK  224  A    between atoms: _541  and  _542
REMARK  225  A    between atoms: _544  and  _546
REMARK  226  A    between atoms: _546  and  _547
REMARK  227  A    between atoms: _546  and  _549
REMARK  228  A    between atoms: _549  and  _550
REMARK  229  A    between atoms: _552  and  _554
REMARK  230  A    between atoms: _554  and  _555
REMARK  231  A    between atoms: _554  and  _557
REMARK  232  A    between atoms: _557  and  _558
REMARK  233  A    between atoms: _558  and  _559
REMARK  234  A    between atoms: _559  and  _560
REMARK  235  A    between atoms: _560  and  _561
REMARK  236  A    between atoms: _565  and  _567
REMARK  237  A    between atoms: _567  and  _568
REMARK  238  A    between atoms: _567  and  _570
REMARK  239  A    between atoms: _570  and  _571
REMARK  240  A    between atoms: _573  and  _575
REMARK  241  A    between atoms: _575  and  _576
REMARK  242  A    between atoms: _575  and  _578
REMARK  243  A    between atoms: _578  and  _579
REMARK  244  A    between atoms: _583  and  _584
REMARK  245  A    between atoms: _589  and  _591
REMARK  246  A    between atoms: _591  and  _592
REMARK  247  A    between atoms: _591  and  _594
REMARK  248  A    between atoms: _594  and  _595
REMARK  249  A    between atoms: _600  and  _601
REMARK  250  A    between atoms: _603  and  _605
REMARK  251  A    between atoms: _605  and  _606
REMARK  252  A    between atoms: _605  and  _608
REMARK  253  A    between atoms: _608  and  _609
REMARK                            x       y       z     vdW  Elec       q    Type
REMARK                         _______ _______ _______ _____ _____    ______ ____
ROOT
ATOM      1  O   HOH     1      45.736  32.212  35.077  0.00  0.00    +0.000 OA
ENDROOT
TORSDOF 0
REMARK  Name = ../refined-set-2016/1m83/1m83_pocket.pdb
REMARK  253 active torsions:
REMARK  status: ('A' for Active; 'I' for Inactive)
REMARK    1  A    between atoms: _1  and  _3
REMARK    2  A    between atoms: _3  and  _4
REMARK    3  A    between atoms: _3  and  _6
REMARK    4  A    between atoms: _6  and  _7
REMARK    5  A    between atoms: _9  and  _11
REMARK    6  A    between atoms: _11  and  _12
REMARK    7  A    between atoms: _14  and  _16
REMARK    8  A    between atoms: _16  and  _17
REMARK    9  A    between atoms: _16  and  _19
REMARK   10  A    between atoms: _19  and  _20
REMARK   11  A    between atoms: _23  and  _25
REMARK   12  A    between atoms: _25  and  _26
REMARK   13  A    between atoms: _25  and  _28
REMARK   14  A    between atoms: _28  and  _29
REMARK   15  A    between atoms: _29  and  _30
REMARK   16  A    between atoms: _36  and  _37
REMARK   17  A    between atoms: _42  and  _44
REMARK   18  A    between atoms: _44  and  _45
REMARK   19  A    between atoms: _44  and  _47
REMARK   20  A    between atoms: _47  and  _48
REMARK   21  A    between atoms: _50  and  _52
REMARK   22  A    between atoms: _52  and  _53
REMARK   23  A    between atoms: _55  and  _57
REMARK   24  A    between atoms: _57  and  _58
REMARK   25  A    between atoms: _57  and  _60
REMARK   26  A    between atoms: _63  and  _65
REMARK   27  A    between atoms: _65  and  _66
REMARK   28  A    between atoms: _65  and  _68
REMARK   29  A    between atoms: _68  and  _69
REMARK   30  A    between atoms: _72  and  _74
REMARK   31  A    between atoms: _74  and  _75
REMARK   32  A    between atoms: _74  and  _77
REMARK   33  A    between atoms: _77  and  _78
REMARK   34  A    between atoms: _81  and  _83
REMARK   35  A    between atoms: _83  and  _84
REMARK   36  A    between atoms: _83  and  _86
REMARK   37  A    between atoms: _86  and  _87
REMARK   38  A    between atoms: _90  and  _92
REMARK   39  A    between atoms: _92  and  _93
REMARK   40  A    between atoms: _95  and  _97
REMARK   41  A    between atoms: _97  and  _98
REMARK   42  A    between atoms: _97  and  _100
REMARK   43  A    between atoms: _100  and  _101
REMARK   44  A    between atoms: _106  and  _108
REMARK   45  A    between atoms: _108  and  _109
REMARK   46  A    between atoms: _108  and  _111
REMARK   47  A    between atoms: _111  and  _112
REMARK   48  A    between atoms: _117  and  _118
REMARK   49  A    between atoms: _120  and  _122
REMARK   50  A    between atoms: _122  and  _123
REMARK   51  A    between atoms: _122  and  _125
REMARK   52  A    between atoms: _125  and  _126
REMARK   53  A    between atoms: _129  and  _131
REMARK   54  A    between atoms: _131  and  _132
REMARK   55  A    between atoms: _134  and  _136
REMARK   56  A    between atoms: _136  and  _137
REMARK   57  A    between atoms: _140  and  _142
REMARK   58  A    between atoms: _142  and  _143
REMARK   59  A    between atoms: _142  and  _145
REMARK   60  A    between atoms: _145  and  _146
REMARK   61  A    between atoms: _149  and  _151
REMARK   62  A    between atoms: _151  and  _152
REMARK   63  A    between atoms: _151  and  _154
REMARK   64  A    between atoms: _154  and  _155
REMARK   65  A    between atoms: _155  and  _156
REMARK   66  A    between atoms: _156  and  _157
REMARK   67  A    between atoms: _166  and  _168
REMARK   68  A    between atoms: _168  and  _169
REMARK   69  A    between atoms: _168  and  _171
REMARK   70  A    between atoms: _171  and  _172
REMARK   71  A    between atoms: _172  and  _173
REMARK   72  A    between atoms: _178  and  _180
REMARK   73  A    between atoms: _180  and  _181
REMARK   74  A    between atoms: _180  and  _183
REMARK   75  A    between atoms: _183  and  _184
REMARK   76  A    between atoms: _190  and  _192
REMARK   77  A    between atoms: _192  and  _193
REMARK   78  A    between atoms: _192  and  _195
REMARK   79  A    between atoms: _197  and  _199
REMARK   80  A    between atoms: _199  and  _200
REMARK   81  A    between atoms: _199  and  _202
REMARK   82  A    between atoms: _205  and  _207
REMARK   83  A    between atoms: _207  and  _208
REMARK   84  A    between atoms: _207  and  _210
REMARK   85  A    between atoms: _210  and  _211
REMARK   86  A    between atoms: _216  and  _218
REMARK   87  A    between atoms: _218  and  _219
REMARK   88  A    between atoms: _222  and  _224
REMARK   89  A    between atoms: _224  and  _225
REMARK   90  A    between atoms: _224  and  _227
REMARK   91  A    between atoms: _227  and  _228
REMARK   92  A    between atoms: _231  and  _233
REMARK   93  A    between atoms: _233  and  _234
REMARK   94  A    between atoms: _233  and  _236
REMARK   95  A    between atoms: _239  and  _241
REMARK   96  A    between atoms: _241  and  _242
REMARK   97  A    between atoms: _241  and  _244
REMARK   98  A    between atoms: _244  and  _245
REMARK   99  A    between atoms: _245  and  _246
REMARK  100  A    between atoms: _251  and  _253
REMARK  101  A    between atoms: _253  and  _254
REMARK  102  A    between atoms: _253  and  _256
REMARK  103  A    between atoms: _256  and  _257
REMARK  104  A    between atoms: _260  and  _262
REMARK  105  A    between atoms: _262  and  _263
REMARK  106  A    between atoms: _262  and  _265
REMARK  107  A    between atoms: _265  and  _266
REMARK  108  A    between atoms: _271  and  _272
REMARK  109  A    between atoms: _274  and  _276
REMARK  110  A    between atoms: _276  and  _277
REMARK  111  A    between atoms: _276  and  _279
REMARK  112  A    between atoms: _279  and  _280
REMARK  113  A    between atoms: _280  and  _281
REMARK  114  A    between atoms: _286  and  _288
REMARK  115  A    between atoms: _288  and  _289
REMARK  116  A    between atoms: _288  and  _291
REMARK  117  A    between atoms: _291  and  _292
REMARK  118  A    between atoms: _292  and  _293
REMARK  119  A    between atoms: _293  and  _294
REMARK  120  A    between atoms: _294  and  _295
REMARK  121  A    between atoms: _299  and  _301
REMARK  122  A    between atoms: _301  and  _302
REMARK  123  A    between atoms: _301  and  _304
REMARK  124  A    between atoms: _304  and  _305
REMARK  125  A    between atoms: _310  and  _311
REMARK  126  A    between atoms: _313  and  _315
REMARK  127  A    between atoms: _315  and  _316
REMARK  128  A    between atoms: _315  and  _318
REMARK  129  A    between atoms: _318  and  _319
REMARK  130  A    between atoms: _319  and  _320
REMARK  131  A    between atoms: _322  and  _324
REMARK  132  A    between atoms: _324  and  _325
REMARK  133  A    between atoms: _324  and  _327
REMARK  134  A    between atoms: _331  and  _332
REMARK  135  A    between atoms: _337  and  _339
REMARK  136  A    between atoms: _339  and  _340
REMARK  137  A    between atoms: _339  and  _342
REMARK  138  A    between atoms: _345  and  _347
REMARK  139  A    between atoms: _347  and  _348
REMARK  140  A    between atoms: _350  and  _352
REMARK  141  A    between atoms: _352  and  _353
REMARK  142  A    between atoms: _352  and  _355
REMARK  143  A    between atoms: _355  and  _356
REMARK  144  A    between atoms: _356  and  _357
REMARK  145  A    between atoms: _360  and  _362
REMARK  146  A    between atoms: _362  and  _363
REMARK  147  A    between atoms: _362  and  _365
REMARK  148  A    between atoms: _365  and  _366
REMARK  149  A    between atoms: _369  and  _371
REMARK  150  A    between atoms: _371  and  _372
REMARK  151  A    between atoms: _371  and  _374
REMARK  152  A    between atoms: _374  and  _375
REMARK  153  A    between atoms: _375  and  _376
REMARK  154  A    between atoms: _381  and  _383
REMARK  155  A    between atoms: _383  and  _384
REMARK  156  A    between atoms: _383  and  _386
REMARK  157  A    between atoms: _386  and  _387
REMARK  158  A    between atoms: _387  and  _388
REMARK  159  A    between atoms: _388  and  _389
REMARK  160  A    between atoms: _389  and  _390
REMARK  161  A    between atoms: _394  and  _396
REMARK  162  A    between atoms: _396  and  _397
REMARK  163  A    between atoms: _396  and  _399
REMARK  164  A    between atoms: _399  and  _400
REMARK  165  A    between atoms: _405  and  _407
REMARK  166  A    between atoms: _407  and  _408
REMARK  167  A    between atoms: _407  and  _410
REMARK  168  A    between atoms: _410  and  _411
REMARK  169  A    between atoms: _414  and  _416
REMARK  170  A    between atoms: _416  and  _417
REMARK  171  A    between atoms: _416  and  _419
REMARK  172  A    between atoms: _419  and  _420
REMARK  173  A    between atoms: _420  and  _421
REMARK  174  A    between atoms: _421  and  _422
REMARK  175  A    between atoms: _431  and  _433
REMARK  176  A    between atoms: _433  and  _434
REMARK  177  A    between atoms: _433  and  _436
REMARK  178  A    between atoms: _436  and  _437
REMARK  179  A    between atoms: _441  and  _442
REMARK  180  A    between atoms: _447  and  _449
REMARK  181  A    between atoms: _449  and  _450
REMARK  182  A    between atoms: _449  and  _452
REMARK  183  A    between atoms: _455  and  _457
REMARK  184  A    between atoms: _457  and  _458
REMARK  185  A    between atoms: _460  and  _462
REMARK  186  A    between atoms: _462  and  _463
REMARK  187  A    between atoms: _466  and  _468
REMARK  188  A    between atoms: _468  and  _469
REMARK  189  A    between atoms: _468  and  _471
REMARK  190  A    between atoms: _471  and  _472
REMARK  191  A    between atoms: _472  and  _473
REMARK  192  A    between atoms: _473  and  _474
REMARK  193  A    between atoms: _483  and  _485
REMARK  194  A    between atoms: _485  and  _486
REMARK  195  A    between atoms: _485  and  _488
REMARK  196  A    between atoms: _488  and  _489
REMARK  197  A    between atoms: _492  and  _494
REMARK  198  A    between atoms: _494  and  _495
REMARK  199  A    between atoms: _494  and  _497
REMARK  200  A    between atoms: _497  and  _498
REMARK  201  A    between atoms: _498  and  _499
REMARK  202  A    between atoms: _501  and  _503
REMARK  203  A    between atoms: _503  and  _504
REMARK  204  A    between atoms: _503  and  _506
REMARK  205  A    between atoms: _506  and  _507
REMARK  206  A    between atoms: _509  and  _511
REMARK  207  A    between atoms: _511  and  _512
REMARK  208  A    between atoms: _511  and  _514
REMARK  209  A    between atoms: _514  and  _515
REMARK  210  A    between atoms: _515  and  _516
REMARK  211  A    between atoms: _516  and  _517
REMARK  212  A    between atoms: _517  and  _518
REMARK  213  A    between atoms: _522  and  _524
REMARK  214  A    between atoms: _524  and  _525
REMARK  215  A    between atoms: _524  and  _527
REMARK  216  A    between atoms: _527  and  _528
REMARK  217  A    between atoms: _528  and  _529
REMARK  218  A    between atoms: _529  and  _530
REMARK  219  A    between atoms: _530  and  _531
REMARK  220  A    between atoms: _535  and  _537
REMARK  221  A    between atoms: _537  and  _538
REMARK  222  A    between atoms: _537  and  _540
REMARK  223  A    between atoms: _540  and  _541
REMARK  224  A    between atoms: _541  and  _542
REMARK  225  A    between atoms: _544  and  _546
REMARK  226  A    between atoms: _546  and  _547
REMARK  227  A    between atoms: _546  and  _549
REMARK  228  A    between atoms: _549  and  _550
REMARK  229  A    between atoms: _552  and  _554
REMARK  230  A    between atoms: _554  and  _555
REMARK  231  A    between atoms: _554  and  _557
REMARK  232  A    between atoms: _557  and  _558
REMARK  233  A    between atoms: _558  and  _559
REMARK  234  A    between atoms: _559  and  _560
REMARK  235  A    between atoms: _560  and  _561
REMARK  236  A    between atoms: _565  and  _567
REMARK  237  A    between atoms: _567  and  _568
REMARK  238  A    between atoms: _567  and  _570
REMARK  239  A    between atoms: _570  and  _571
REMARK  240  A    between atoms: _573  and  _575
REMARK  241  A    between atoms: _575  and  _576
REMARK  242  A    between atoms: _575  and  _578
REMARK  243  A    between atoms: _578  and  _579
REMARK  244  A    between atoms: _583  and  _584
REMARK  245  A    between atoms: _589  and  _591
REMARK  246  A    between atoms: _591  and  _592
REMARK  247  A    between atoms: _591  and  _594
REMARK  248  A    between atoms: _594  and  _595
REMARK  249  A    between atoms: _600  and  _601
REMARK  250  A    between atoms: _603  and  _605
REMARK  251  A    between atoms: _605  and  _606
REMARK  252  A    between atoms: _605  and  _608
REMARK  253  A    between atoms: _608  and  _609
REMARK                            x       y       z     vdW  Elec       q    Type
REMARK                         _______ _______ _______ _____ _____    ______ ____
ROOT
ATOM      1  O   HOH     1      52.771  37.053  30.954  0.00  0.00    +0.000 OA
ENDROOT
TORSDOF 0
REMARK  Name = ../refined-set-2016/1m83/1m83_pocket.pdb
REMARK  253 active torsions:
REMARK  status: ('A' for Active; 'I' for Inactive)
REMARK    1  A    between atoms: _1  and  _3
REMARK    2  A    between atoms: _3  and  _4
REMARK    3  A    between atoms: _3  and  _6
REMARK    4  A    between atoms: _6  and  _7
REMARK    5  A    between atoms: _9  and  _11
REMARK    6  A    between atoms: _11  and  _12
REMARK    7  A    between atoms: _14  and  _16
REMARK    8  A    between atoms: _16  and  _17
REMARK    9  A    between atoms: _16  and  _19
REMARK   10  A    between atoms: _19  and  _20
REMARK   11  A    between atoms: _23  and  _25
REMARK   12  A    between atoms: _25  and  _26
REMARK   13  A    between atoms: _25  and  _28
REMARK   14  A    between atoms: _28  and  _29
REMARK   15  A    between atoms: _29  and  _30
REMARK   16  A    between atoms: _36  and  _37
REMARK   17  A    between atoms: _42  and  _44
REMARK   18  A    between atoms: _44  and  _45
REMARK   19  A    between atoms: _44  and  _47
REMARK   20  A    between atoms: _47  and  _48
REMARK   21  A    between atoms: _50  and  _52
REMARK   22  A    between atoms: _52  and  _53
REMARK   23  A    between atoms: _55  and  _57
REMARK   24  A    between atoms: _57  and  _58
REMARK   25  A    between atoms: _57  and  _60
REMARK   26  A    between atoms: _63  and  _65
REMARK   27  A    between atoms: _65  and  _66
REMARK   28  A    between atoms: _65  and  _68
REMARK   29  A    between atoms: _68  and  _69
REMARK   30  A    between atoms: _72  and  _74
REMARK   31  A    between atoms: _74  and  _75
REMARK   32  A    between atoms: _74  and  _77
REMARK   33  A    between atoms: _77  and  _78
REMARK   34  A    between atoms: _81  and  _83
REMARK   35  A    between atoms: _83  and  _84
REMARK   36  A    between atoms: _83  and  _86
REMARK   37  A    between atoms: _86  and  _87
REMARK   38  A    between atoms: _90  and  _92
REMARK   39  A    between atoms: _92  and  _93
REMARK   40  A    between atoms: _95  and  _97
REMARK   41  A    between atoms: _97  and  _98
REMARK   42  A    between atoms: _97  and  _100
REMARK   43  A    between atoms: _100  and  _101
REMARK   44  A    between atoms: _106  and  _108
REMARK   45  A    between atoms: _108  and  _109
REMARK   46  A    between atoms: _108  and  _111
REMARK   47  A    between atoms: _111  and  _112
REMARK   48  A    between atoms: _117  and  _118
REMARK   49  A    between atoms: _120  and  _122
REMARK   50  A    between atoms: _122  and  _123
REMARK   51  A    between atoms: _122  and  _125
REMARK   52  A    between atoms: _125  and  _126
REMARK   53  A    between atoms: _129  and  _131
REMARK   54  A    between atoms: _131  and  _132
REMARK   55  A    between atoms: _134  and  _136
REMARK   56  A    between atoms: _136  and  _137
REMARK   57  A    between atoms: _140  and  _142
REMARK   58  A    between atoms: _142  and  _143
REMARK   59  A    between atoms: _142  and  _145
REMARK   60  A    between atoms: _145  and  _146
REMARK   61  A    between atoms: _149  and  _151
REMARK   62  A    between atoms: _151  and  _152
REMARK   63  A    between atoms: _151  and  _154
REMARK   64  A    between atoms: _154  and  _155
REMARK   65  A    between atoms: _155  and  _156
REMARK   66  A    between atoms: _156  and  _157
REMARK   67  A    between atoms: _166  and  _168
REMARK   68  A    between atoms: _168  and  _169
REMARK   69  A    between atoms: _168  and  _171
REMARK   70  A    between atoms: _171  and  _172
REMARK   71  A    between atoms: _172  and  _173
REMARK   72  A    between atoms: _178  and  _180
REMARK   73  A    between atoms: _180  and  _181
REMARK   74  A    between atoms: _180  and  _183
REMARK   75  A    between atoms: _183  and  _184
REMARK   76  A    between atoms: _190  and  _192
REMARK   77  A    between atoms: _192  and  _193
REMARK   78  A    between atoms: _192  and  _195
REMARK   79  A    between atoms: _197  and  _199
REMARK   80  A    between atoms: _199  and  _200
REMARK   81  A    between atoms: _199  and  _202
REMARK   82  A    between atoms: _205  and  _207
REMARK   83  A    between atoms: _207  and  _208
REMARK   84  A    between atoms: _207  and  _210
REMARK   85  A    between atoms: _210  and  _211
REMARK   86  A    between atoms: _216  and  _218
REMARK   87  A    between atoms: _218  and  _219
REMARK   88  A    between atoms: _222  and  _224
REMARK   89  A    between atoms: _224  and  _225
REMARK   90  A    between atoms: _224  and  _227
REMARK   91  A    between atoms: _227  and  _228
REMARK   92  A    between atoms: _231  and  _233
REMARK   93  A    between atoms: _233  and  _234
REMARK   94  A    between atoms: _233  and  _236
REMARK   95  A    between atoms: _239  and  _241
REMARK   96  A    between atoms: _241  and  _242
REMARK   97  A    between atoms: _241  and  _244
REMARK   98  A    between atoms: _244  and  _245
REMARK   99  A    between atoms: _245  and  _246
REMARK  100  A    between atoms: _251  and  _253
REMARK  101  A    between atoms: _253  and  _254
REMARK  102  A    between atoms: _253  and  _256
REMARK  103  A    between atoms: _256  and  _257
REMARK  104  A    between atoms: _260  and  _262
REMARK  105  A    between atoms: _262  and  _263
REMARK  106  A    between atoms: _262  and  _265
REMARK  107  A    between atoms: _265  and  _266
REMARK  108  A    between atoms: _271  and  _272
REMARK  109  A    between atoms: _274  and  _276
REMARK  110  A    between atoms: _276  and  _277
REMARK  111  A    between atoms: _276  and  _279
REMARK  112  A    between atoms: _279  and  _280
REMARK  113  A    between atoms: _280  and  _281
REMARK  114  A    between atoms: _286  and  _288
REMARK  115  A    between atoms: _288  and  _289
REMARK  116  A    between atoms: _288  and  _291
REMARK  117  A    between atoms: _291  and  _292
REMARK  118  A    between atoms: _292  and  _293
REMARK  119  A    between atoms: _293  and  _294
REMARK  120  A    between atoms: _294  and  _295
REMARK  121  A    between atoms: _299  and  _301
REMARK  122  A    between atoms: _301  and  _302
REMARK  123  A    between atoms: _301  and  _304
REMARK  124  A    between atoms: _304  and  _305
REMARK  125  A    between atoms: _310  and  _311
REMARK  126  A    between atoms: _313  and  _315
REMARK  127  A    between atoms: _315  and  _316
REMARK  128  A    between atoms: _315  and  _318
REMARK  129  A    between atoms: _318  and  _319
REMARK  130  A    between atoms: _319  and  _320
REMARK  131  A    between atoms: _322  and  _324
REMARK  132  A    between atoms: _324  and  _325
REMARK  133  A    between atoms: _324  and  _327
REMARK  134  A    between atoms: _331  and  _332
REMARK  135  A    between atoms: _337  and  _339
REMARK  136  A    between atoms: _339  and  _340
REMARK  137  A    between atoms: _339  and  _342
REMARK  138  A    between atoms: _345  and  _347
REMARK  139  A    between atoms: _347  and  _348
REMARK  140  A    between atoms: _350  and  _352
REMARK  141  A    between atoms: _352  and  _353
REMARK  142  A    between atoms: _352  and  _355
REMARK  143  A    between atoms: _355  and  _356
REMARK  144  A    between atoms: _356  and  _357
REMARK  145  A    between atoms: _360  and  _362
REMARK  146  A    between atoms: _362  and  _363
REMARK  147  A    between atoms: _362  and  _365
REMARK  148  A    between atoms: _365  and  _366
REMARK  149  A    between atoms: _369  and  _371
REMARK  150  A    between atoms: _371  and  _372
REMARK  151  A    between atoms: _371  and  _374
REMARK  152  A    between atoms: _374  and  _375
REMARK  153  A    between atoms: _375  and  _376
REMARK  154  A    between atoms: _381  and  _383
REMARK  155  A    between atoms: _383  and  _384
REMARK  156  A    between atoms: _383  and  _386
REMARK  157  A    between atoms: _386  and  _387
REMARK  158  A    between atoms: _387  and  _388
REMARK  159  A    between atoms: _388  and  _389
REMARK  160  A    between atoms: _389  and  _390
REMARK  161  A    between atoms: _394  and  _396
REMARK  162  A    between atoms: _396  and  _397
REMARK  163  A    between atoms: _396  and  _399
REMARK  164  A    between atoms: _399  and  _400
REMARK  165  A    between atoms: _405  and  _407
REMARK  166  A    between atoms: _407  and  _408
REMARK  167  A    between atoms: _407  and  _410
REMARK  168  A    between atoms: _410  and  _411
REMARK  169  A    between atoms: _414  and  _416
REMARK  170  A    between atoms: _416  and  _417
REMARK  171  A    between atoms: _416  and  _419
REMARK  172  A    between atoms: _419  and  _420
REMARK  173  A    between atoms: _420  and  _421
REMARK  174  A    between atoms: _421  and  _422
REMARK  175  A    between atoms: _431  and  _433
REMARK  176  A    between atoms: _433  and  _434
REMARK  177  A    between atoms: _433  and  _436
REMARK  178  A    between atoms: _436  and  _437
REMARK  179  A    between atoms: _441  and  _442
REMARK  180  A    between atoms: _447  and  _449
REMARK  181  A    between atoms: _449  and  _450
REMARK  182  A    between atoms: _449  and  _452
REMARK  183  A    between atoms: _455  and  _457
REMARK  184  A    between atoms: _457  and  _458
REMARK  185  A    between atoms: _460  and  _462
REMARK  186  A    between atoms: _462  and  _463
REMARK  187  A    between atoms: _466  and  _468
REMARK  188  A    between atoms: _468  and  _469
REMARK  189  A    between atoms: _468  and  _471
REMARK  190  A    between atoms: _471  and  _472
REMARK  191  A    between atoms: _472  and  _473
REMARK  192  A    between atoms: _473  and  _474
REMARK  193  A    between atoms: _483  and  _485
REMARK  194  A    between atoms: _485  and  _486
REMARK  195  A    between atoms: _485  and  _488
REMARK  196  A    between atoms: _488  and  _489
REMARK  197  A    between atoms: _492  and  _494
REMARK  198  A    between atoms: _494  and  _495
REMARK  199  A    between atoms: _494  and  _497
REMARK  200  A    between atoms: _497  and  _498
REMARK  201  A    between atoms: _498  and  _499
REMARK  202  A    between atoms: _501  and  _503
REMARK  203  A    between atoms: _503  and  _504
REMARK  204  A    between atoms: _503  and  _506
REMARK  205  A    between atoms: _506  and  _507
REMARK  206  A    between atoms: _509  and  _511
REMARK  207  A    between atoms: _511  and  _512
REMARK  208  A    between atoms: _511  and  _514
REMARK  209  A    between atoms: _514  and  _515
REMARK  210  A    between atoms: _515  and  _516
REMARK  211  A    between atoms: _516  and  _517
REMARK  212  A    between atoms: _517  and  _518
REMARK  213  A    between atoms: _522  and  _524
REMARK  214  A    between atoms: _524  and  _525
REMARK  215  A    between atoms: _524  and  _527
REMARK  216  A    between atoms: _527  and  _528
REMARK  217  A    between atoms: _528  and  _529
REMARK  218  A    between atoms: _529  and  _530
REMARK  219  A    between atoms: _530  and  _531
REMARK  220  A    between atoms: _535  and  _537
REMARK  221  A    between atoms: _537  and  _538
REMARK  222  A    between atoms: _537  and  _540
REMARK  223  A    between atoms: _540  and  _541
REMARK  224  A    between atoms: _541  and  _542
REMARK  225  A    between atoms: _544  and  _546
REMARK  226  A    between atoms: _546  and  _547
REMARK  227  A    between atoms: _546  and  _549
REMARK  228  A    between atoms: _549  and  _550
REMARK  229  A    between atoms: _552  and  _554
REMARK  230  A    between atoms: _554  and  _555
REMARK  231  A    between atoms: _554  and  _557
REMARK  232  A    between atoms: _557  and  _558
REMARK  233  A    between atoms: _558  and  _559
REMARK  234  A    between atoms: _559  and  _560
REMARK  235  A    between atoms: _560  and  _561
REMARK  236  A    between atoms: _565  and  _567
REMARK  237  A    between atoms: _567  and  _568
REMARK  238  A    between atoms: _567  and  _570
REMARK  239  A    between atoms: _570  and  _571
REMARK  240  A    between atoms: _573  and  _575
REMARK  241  A    between atoms: _575  and  _576
REMARK  242  A    between atoms: _575  and  _578
REMARK  243  A    between atoms: _578  and  _579
REMARK  244  A    between atoms: _583  and  _584
REMARK  245  A    between atoms: _589  and  _591
REMARK  246  A    between atoms: _591  and  _592
REMARK  247  A    between atoms: _591  and  _594
REMARK  248  A    between atoms: _594  and  _595
REMARK  249  A    between atoms: _600  and  _601
REMARK  250  A    between atoms: _603  and  _605
REMARK  251  A    between atoms: _605  and  _606
REMARK  252  A    between atoms: _605  and  _608
REMARK  253  A    between atoms: _608  and  _609
REMARK                            x       y       z     vdW  Elec       q    Type
REMARK                         _______ _______ _______ _____ _____    ______ ____
ROOT
ATOM      1  O   HOH     1      53.601  15.922  33.015  0.00  0.00    +0.000 OA
ENDROOT
TORSDOF 0
REMARK  Name = ../refined-set-2016/1m83/1m83_pocket.pdb
REMARK  253 active torsions:
REMARK  status: ('A' for Active; 'I' for Inactive)
REMARK    1  A    between atoms: _1  and  _3
REMARK    2  A    between atoms: _3  and  _4
REMARK    3  A    between atoms: _3  and  _6
REMARK    4  A    between atoms: _6  and  _7
REMARK    5  A    between atoms: _9  and  _11
REMARK    6  A    between atoms: _11  and  _12
REMARK    7  A    between atoms: _14  and  _16
REMARK    8  A    between atoms: _16  and  _17
REMARK    9  A    between atoms: _16  and  _19
REMARK   10  A    between atoms: _19  and  _20
REMARK   11  A    between atoms: _23  and  _25
REMARK   12  A    between atoms: _25  and  _26
REMARK   13  A    between atoms: _25  and  _28
REMARK   14  A    between atoms: _28  and  _29
REMARK   15  A    between atoms: _29  and  _30
REMARK   16  A    between atoms: _36  and  _37
REMARK   17  A    between atoms: _42  and  _44
REMARK   18  A    between atoms: _44  and  _45
REMARK   19  A    between atoms: _44  and  _47
REMARK   20  A    between atoms: _47  and  _48
REMARK   21  A    between atoms: _50  and  _52
REMARK   22  A    between atoms: _52  and  _53
REMARK   23  A    between atoms: _55  and  _57
REMARK   24  A    between atoms: _57  and  _58
REMARK   25  A    between atoms: _57  and  _60
REMARK   26  A    between atoms: _63  and  _65
REMARK   27  A    between atoms: _65  and  _66
REMARK   28  A    between atoms: _65  and  _68
REMARK   29  A    between atoms: _68  and  _69
REMARK   30  A    between atoms: _72  and  _74
REMARK   31  A    between atoms: _74  and  _75
REMARK   32  A    between atoms: _74  and  _77
REMARK   33  A    between atoms: _77  and  _78
REMARK   34  A    between atoms: _81  and  _83
REMARK   35  A    between atoms: _83  and  _84
REMARK   36  A    between atoms: _83  and  _86
REMARK   37  A    between atoms: _86  and  _87
REMARK   38  A    between atoms: _90  and  _92
REMARK   39  A    between atoms: _92  and  _93
REMARK   40  A    between atoms: _95  and  _97
REMARK   41  A    between atoms: _97  and  _98
REMARK   42  A    between atoms: _97  and  _100
REMARK   43  A    between atoms: _100  and  _101
REMARK   44  A    between atoms: _106  and  _108
REMARK   45  A    between atoms: _108  and  _109
REMARK   46  A    between atoms: _108  and  _111
REMARK   47  A    between atoms: _111  and  _112
REMARK   48  A    between atoms: _117  and  _118
REMARK   49  A    between atoms: _120  and  _122
REMARK   50  A    between atoms: _122  and  _123
REMARK   51  A    between atoms: _122  and  _125
REMARK   52  A    between atoms: _125  and  _126
REMARK   53  A    between atoms: _129  and  _131
REMARK   54  A    between atoms: _131  and  _132
REMARK   55  A    between atoms: _134  and  _136
REMARK   56  A    between atoms: _136  and  _137
REMARK   57  A    between atoms: _140  and  _142
REMARK   58  A    between atoms: _142  and  _143
REMARK   59  A    between atoms: _142  and  _145
REMARK   60  A    between atoms: _145  and  _146
REMARK   61  A    between atoms: _149  and  _151
REMARK   62  A    between atoms: _151  and  _152
REMARK   63  A    between atoms: _151  and  _154
REMARK   64  A    between atoms: _154  and  _155
REMARK   65  A    between atoms: _155  and  _156
REMARK   66  A    between atoms: _156  and  _157
REMARK   67  A    between atoms: _166  and  _168
REMARK   68  A    between atoms: _168  and  _169
REMARK   69  A    between atoms: _168  and  _171
REMARK   70  A    between atoms: _171  and  _172
REMARK   71  A    between atoms: _172  and  _173
REMARK   72  A    between atoms: _178  and  _180
REMARK   73  A    between atoms: _180  and  _181
REMARK   74  A    between atoms: _180  and  _183
REMARK   75  A    between atoms: _183  and  _184
REMARK   76  A    between atoms: _190  and  _192
REMARK   77  A    between atoms: _192  and  _193
REMARK   78  A    between atoms: _192  and  _195
REMARK   79  A    between atoms: _197  and  _199
REMARK   80  A    between atoms: _199  and  _200
REMARK   81  A    between atoms: _199  and  _202
REMARK   82  A    between atoms: _205  and  _207
REMARK   83  A    between atoms: _207  and  _208
REMARK   84  A    between atoms: _207  and  _210
REMARK   85  A    between atoms: _210  and  _211
REMARK   86  A    between atoms: _216  and  _218
REMARK   87  A    between atoms: _218  and  _219
REMARK   88  A    between atoms: _222  and  _224
REMARK   89  A    between atoms: _224  and  _225
REMARK   90  A    between atoms: _224  and  _227
REMARK   91  A    between atoms: _227  and  _228
REMARK   92  A    between atoms: _231  and  _233
REMARK   93  A    between atoms: _233  and  _234
REMARK   94  A    between atoms: _233  and  _236
REMARK   95  A    between atoms: _239  and  _241
REMARK   96  A    between atoms: _241  and  _242
REMARK   97  A    between atoms: _241  and  _244
REMARK   98  A    between atoms: _244  and  _245
REMARK   99  A    between atoms: _245  and  _246
REMARK  100  A    between atoms: _251  and  _253
REMARK  101  A    between atoms: _253  and  _254
REMARK  102  A    between atoms: _253  and  _256
REMARK  103  A    between atoms: _256  and  _257
REMARK  104  A    between atoms: _260  and  _262
REMARK  105  A    between atoms: _262  and  _263
REMARK  106  A    between atoms: _262  and  _265
REMARK  107  A    between atoms: _265  and  _266
REMARK  108  A    between atoms: _271  and  _272
REMARK  109  A    between atoms: _274  and  _276
REMARK  110  A    between atoms: _276  and  _277
REMARK  111  A    between atoms: _276  and  _279
REMARK  112  A    between atoms: _279  and  _280
REMARK  113  A    between atoms: _280  and  _281
REMARK  114  A    between atoms: _286  and  _288
REMARK  115  A    between atoms: _288  and  _289
REMARK  116  A    between atoms: _288  and  _291
REMARK  117  A    between atoms: _291  and  _292
REMARK  118  A    between atoms: _292  and  _293
REMARK  119  A    between atoms: _293  and  _294
REMARK  120  A    between atoms: _294  and  _295
REMARK  121  A    between atoms: _299  and  _301
REMARK  122  A    between atoms: _301  and  _302
REMARK  123  A    between atoms: _301  and  _304
REMARK  124  A    between atoms: _304  and  _305
REMARK  125  A    between atoms: _310  and  _311
REMARK  126  A    between atoms: _313  and  _315
REMARK  127  A    between atoms: _315  and  _316
REMARK  128  A    between atoms: _315  and  _318
REMARK  129  A    between atoms: _318  and  _319
REMARK  130  A    between atoms: _319  and  _320
REMARK  131  A    between atoms: _322  and  _324
REMARK  132  A    between atoms: _324  and  _325
REMARK  133  A    between atoms: _324  and  _327
REMARK  134  A    between atoms: _331  and  _332
REMARK  135  A    between atoms: _337  and  _339
REMARK  136  A    between atoms: _339  and  _340
REMARK  137  A    between atoms: _339  and  _342
REMARK  138  A    between atoms: _345  and  _347
REMARK  139  A    between atoms: _347  and  _348
REMARK  140  A    between atoms: _350  and  _352
REMARK  141  A    between atoms: _352  and  _353
REMARK  142  A    between atoms: _352  and  _355
REMARK  143  A    between atoms: _355  and  _356
REMARK  144  A    between atoms: _356  and  _357
REMARK  145  A    between atoms: _360  and  _362
REMARK  146  A    between atoms: _362  and  _363
REMARK  147  A    between atoms: _362  and  _365
REMARK  148  A    between atoms: _365  and  _366
REMARK  149  A    between atoms: _369  and  _371
REMARK  150  A    between atoms: _371  and  _372
REMARK  151  A    between atoms: _371  and  _374
REMARK  152  A    between atoms: _374  and  _375
REMARK  153  A    between atoms: _375  and  _376
REMARK  154  A    between atoms: _381  and  _383
REMARK  155  A    between atoms: _383  and  _384
REMARK  156  A    between atoms: _383  and  _386
REMARK  157  A    between atoms: _386  and  _387
REMARK  158  A    between atoms: _387  and  _388
REMARK  159  A    between atoms: _388  and  _389
REMARK  160  A    between atoms: _389  and  _390
REMARK  161  A    between atoms: _394  and  _396
REMARK  162  A    between atoms: _396  and  _397
REMARK  163  A    between atoms: _396  and  _399
REMARK  164  A    between atoms: _399  and  _400
REMARK  165  A    between atoms: _405  and  _407
REMARK  166  A    between atoms: _407  and  _408
REMARK  167  A    between atoms: _407  and  _410
REMARK  168  A    between atoms: _410  and  _411
REMARK  169  A    between atoms: _414  and  _416
REMARK  170  A    between atoms: _416  and  _417
REMARK  171  A    between atoms: _416  and  _419
REMARK  172  A    between atoms: _419  and  _420
REMARK  173  A    between atoms: _420  and  _421
REMARK  174  A    between atoms: _421  and  _422
REMARK  175  A    between atoms: _431  and  _433
REMARK  176  A    between atoms: _433  and  _434
REMARK  177  A    between atoms: _433  and  _436
REMARK  178  A    between atoms: _436  and  _437
REMARK  179  A    between atoms: _441  and  _442
REMARK  180  A    between atoms: _447  and  _449
REMARK  181  A    between atoms: _449  and  _450
REMARK  182  A    between atoms: _449  and  _452
REMARK  183  A    between atoms: _455  and  _457
REMARK  184  A    between atoms: _457  and  _458
REMARK  185  A    between atoms: _460  and  _462
REMARK  186  A    between atoms: _462  and  _463
REMARK  187  A    between atoms: _466  and  _468
REMARK  188  A    between atoms: _468  and  _469
REMARK  189  A    between atoms: _468  and  _471
REMARK  190  A    between atoms: _471  and  _472
REMARK  191  A    between atoms: _472  and  _473
REMARK  192  A    between atoms: _473  and  _474
REMARK  193  A    between atoms: _483  and  _485
REMARK  194  A    between atoms: _485  and  _486
REMARK  195  A    between atoms: _485  and  _488
REMARK  196  A    between atoms: _488  and  _489
REMARK  197  A    between atoms: _492  and  _494
REMARK  198  A    between atoms: _494  and  _495
REMARK  199  A    between atoms: _494  and  _497
REMARK  200  A    between atoms: _497  and  _498
REMARK  201  A    between atoms: _498  and  _499
REMARK  202  A    between atoms: _501  and  _503
REMARK  203  A    between atoms: _503  and  _504
REMARK  204  A    between atoms: _503  and  _506
REMARK  205  A    between atoms: _506  and  _507
REMARK  206  A    between atoms: _509  and  _511
REMARK  207  A    between atoms: _511  and  _512
REMARK  208  A    between atoms: _511  and  _514
REMARK  209  A    between atoms: _514  and  _515
REMARK  210  A    between atoms: _515  and  _516
REMARK  211  A    between atoms: _516  and  _517
REMARK  212  A    between atoms: _517  and  _518
REMARK  213  A    between atoms: _522  and  _524
REMARK  214  A    between atoms: _524  and  _525
REMARK  215  A    between atoms: _524  and  _527
REMARK  216  A    between atoms: _527  and  _528
REMARK  217  A    between atoms: _528  and  _529
REMARK  218  A    between atoms: _529  and  _530
REMARK  219  A    between atoms: _530  and  _531
REMARK  220  A    between atoms: _535  and  _537
REMARK  221  A    between atoms: _537  and  _538
REMARK  222  A    between atoms: _537  and  _540
REMARK  223  A    between atoms: _540  and  _541
REMARK  224  A    between atoms: _541  and  _542
REMARK  225  A    between atoms: _544  and  _546
REMARK  226  A    between atoms: _546  and  _547
REMARK  227  A    between atoms: _546  and  _549
REMARK  228  A    between atoms: _549  and  _550
REMARK  229  A    between atoms: _552  and  _554
REMARK  230  A    between atoms: _554  and  _555
REMARK  231  A    between atoms: _554  and  _557
REMARK  232  A    between atoms: _557  and  _558
REMARK  233  A    between atoms: _558  and  _559
REMARK  234  A    between atoms: _559  and  _560
REMARK  235  A    between atoms: _560  and  _561
REMARK  236  A    between atoms: _565  and  _567
REMARK  237  A    between atoms: _567  and  _568
REMARK  238  A    between atoms: _567  and  _570
REMARK  239  A    between atoms: _570  and  _571
REMARK  240  A    between atoms: _573  and  _575
REMARK  241  A    between atoms: _575  and  _576
REMARK  242  A    between atoms: _575  and  _578
REMARK  243  A    between atoms: _578  and  _579
REMARK  244  A    between atoms: _583  and  _584
REMARK  245  A    between atoms: _589  and  _591
REMARK  246  A    between atoms: _591  and  _592
REMARK  247  A    between atoms: _591  and  _594
REMARK  248  A    between atoms: _594  and  _595
REMARK  249  A    between atoms: _600  and  _601
REMARK  250  A    between atoms: _603  and  _605
REMARK  251  A    between atoms: _605  and  _606
REMARK  252  A    between atoms: _605  and  _608
REMARK  253  A    between atoms: _608  and  _609
REMARK                            x       y       z     vdW  Elec       q    Type
REMARK                         _______ _______ _______ _____ _____    ______ ____
ROOT
ATOM      1  O   HOH     1      62.921  28.469  36.042  0.00  0.00    +0.000 OA
ENDROOT
TORSDOF 0
REMARK  Name = ../refined-set-2016/1m83/1m83_pocket.pdb
REMARK  253 active torsions:
REMARK  status: ('A' for Active; 'I' for Inactive)
REMARK    1  A    between atoms: _1  and  _3
REMARK    2  A    between atoms: _3  and  _4
REMARK    3  A    between atoms: _3  and  _6
REMARK    4  A    between atoms: _6  and  _7
REMARK    5  A    between atoms: _9  and  _11
REMARK    6  A    between atoms: _11  and  _12
REMARK    7  A    between atoms: _14  and  _16
REMARK    8  A    between atoms: _16  and  _17
REMARK    9  A    between atoms: _16  and  _19
REMARK   10  A    between atoms: _19  and  _20
REMARK   11  A    between atoms: _23  and  _25
REMARK   12  A    between atoms: _25  and  _26
REMARK   13  A    between atoms: _25  and  _28
REMARK   14  A    between atoms: _28  and  _29
REMARK   15  A    between atoms: _29  and  _30
REMARK   16  A    between atoms: _36  and  _37
REMARK   17  A    between atoms: _42  and  _44
REMARK   18  A    between atoms: _44  and  _45
REMARK   19  A    between atoms: _44  and  _47
REMARK   20  A    between atoms: _47  and  _48
REMARK   21  A    between atoms: _50  and  _52
REMARK   22  A    between atoms: _52  and  _53
REMARK   23  A    between atoms: _55  and  _57
REMARK   24  A    between atoms: _57  and  _58
REMARK   25  A    between atoms: _57  and  _60
REMARK   26  A    between atoms: _63  and  _65
REMARK   27  A    between atoms: _65  and  _66
REMARK   28  A    between atoms: _65  and  _68
REMARK   29  A    between atoms: _68  and  _69
REMARK   30  A    between atoms: _72  and  _74
REMARK   31  A    between atoms: _74  and  _75
REMARK   32  A    between atoms: _74  and  _77
REMARK   33  A    between atoms: _77  and  _78
REMARK   34  A    between atoms: _81  and  _83
REMARK   35  A    between atoms: _83  and  _84
REMARK   36  A    between atoms: _83  and  _86
REMARK   37  A    between atoms: _86  and  _87
REMARK   38  A    between atoms: _90  and  _92
REMARK   39  A    between atoms: _92  and  _93
REMARK   40  A    between atoms: _95  and  _97
REMARK   41  A    between atoms: _97  and  _98
REMARK   42  A    between atoms: _97  and  _100
REMARK   43  A    between atoms: _100  and  _101
REMARK   44  A    between atoms: _106  and  _108
REMARK   45  A    between atoms: _108  and  _109
REMARK   46  A    between atoms: _108  and  _111
REMARK   47  A    between atoms: _111  and  _112
REMARK   48  A    between atoms: _117  and  _118
REMARK   49  A    between atoms: _120  and  _122
REMARK   50  A    between atoms: _122  and  _123
REMARK   51  A    between atoms: _122  and  _125
REMARK   52  A    between atoms: _125  and  _126
REMARK   53  A    between atoms: _129  and  _131
REMARK   54  A    between atoms: _131  and  _132
REMARK   55  A    between atoms: _134  and  _136
REMARK   56  A    between atoms: _136  and  _137
REMARK   57  A    between atoms: _140  and  _142
REMARK   58  A    between atoms: _142  and  _143
REMARK   59  A    between atoms: _142  and  _145
REMARK   60  A    between atoms: _145  and  _146
REMARK   61  A    between atoms: _149  and  _151
REMARK   62  A    between atoms: _151  and  _152
REMARK   63  A    between atoms: _151  and  _154
REMARK   64  A    between atoms: _154  and  _155
REMARK   65  A    between atoms: _155  and  _156
REMARK   66  A    between atoms: _156  and  _157
REMARK   67  A    between atoms: _166  and  _168
REMARK   68  A    between atoms: _168  and  _169
REMARK   69  A    between atoms: _168  and  _171
REMARK   70  A    between atoms: _171  and  _172
REMARK   71  A    between atoms: _172  and  _173
REMARK   72  A    between atoms: _178  and  _180
REMARK   73  A    between atoms: _180  and  _181
REMARK   74  A    between atoms: _180  and  _183
REMARK   75  A    between atoms: _183  and  _184
REMARK   76  A    between atoms: _190  and  _192
REMARK   77  A    between atoms: _192  and  _193
REMARK   78  A    between atoms: _192  and  _195
REMARK   79  A    between atoms: _197  and  _199
REMARK   80  A    between atoms: _199  and  _200
REMARK   81  A    between atoms: _199  and  _202
REMARK   82  A    between atoms: _205  and  _207
REMARK   83  A    between atoms: _207  and  _208
REMARK   84  A    between atoms: _207  and  _210
REMARK   85  A    between atoms: _210  and  _211
REMARK   86  A    between atoms: _216  and  _218
REMARK   87  A    between atoms: _218  and  _219
REMARK   88  A    between atoms: _222  and  _224
REMARK   89  A    between atoms: _224  and  _225
REMARK   90  A    between atoms: _224  and  _227
REMARK   91  A    between atoms: _227  and  _228
REMARK   92  A    between atoms: _231  and  _233
REMARK   93  A    between atoms: _233  and  _234
REMARK   94  A    between atoms: _233  and  _236
REMARK   95  A    between atoms: _239  and  _241
REMARK   96  A    between atoms: _241  and  _242
REMARK   97  A    between atoms: _241  and  _244
REMARK   98  A    between atoms: _244  and  _245
REMARK   99  A    between atoms: _245  and  _246
REMARK  100  A    between atoms: _251  and  _253
REMARK  101  A    between atoms: _253  and  _254
REMARK  102  A    between atoms: _253  and  _256
REMARK  103  A    between atoms: _256  and  _257
REMARK  104  A    between atoms: _260  and  _262
REMARK  105  A    between atoms: _262  and  _263
REMARK  106  A    between atoms: _262  and  _265
REMARK  107  A    between atoms: _265  and  _266
REMARK  108  A    between atoms: _271  and  _272
REMARK  109  A    between atoms: _274  and  _276
REMARK  110  A    between atoms: _276  and  _277
REMARK  111  A    between atoms: _276  and  _279
REMARK  112  A    between atoms: _279  and  _280
REMARK  113  A    between atoms: _280  and  _281
REMARK  114  A    between atoms: _286  and  _288
REMARK  115  A    between atoms: _288  and  _289
REMARK  116  A    between atoms: _288  and  _291
REMARK  117  A    between atoms: _291  and  _292
REMARK  118  A    between atoms: _292  and  _293
REMARK  119  A    between atoms: _293  and  _294
REMARK  120  A    between atoms: _294  and  _295
REMARK  121  A    between atoms: _299  and  _301
REMARK  122  A    between atoms: _301  and  _302
REMARK  123  A    between atoms: _301  and  _304
REMARK  124  A    between atoms: _304  and  _305
REMARK  125  A    between atoms: _310  and  _311
REMARK  126  A    between atoms: _313  and  _315
REMARK  127  A    between atoms: _315  and  _316
REMARK  128  A    between atoms: _315  and  _318
REMARK  129  A    between atoms: _318  and  _319
REMARK  130  A    between atoms: _319  and  _320
REMARK  131  A    between atoms: _322  and  _324
REMARK  132  A    between atoms: _324  and  _325
REMARK  133  A    between atoms: _324  and  _327
REMARK  134  A    between atoms: _331  and  _332
REMARK  135  A    between atoms: _337  and  _339
REMARK  136  A    between atoms: _339  and  _340
REMARK  137  A    between atoms: _339  and  _342
REMARK  138  A    between atoms: _345  and  _347
REMARK  139  A    between atoms: _347  and  _348
REMARK  140  A    between atoms: _350  and  _352
REMARK  141  A    between atoms: _352  and  _353
REMARK  142  A    between atoms: _352  and  _355
REMARK  143  A    between atoms: _355  and  _356
REMARK  144  A    between atoms: _356  and  _357
REMARK  145  A    between atoms: _360  and  _362
REMARK  146  A    between atoms: _362  and  _363
REMARK  147  A    between atoms: _362  and  _365
REMARK  148  A    between atoms: _365  and  _366
REMARK  149  A    between atoms: _369  and  _371
REMARK  150  A    between atoms: _371  and  _372
REMARK  151  A    between atoms: _371  and  _374
REMARK  152  A    between atoms: _374  and  _375
REMARK  153  A    between atoms: _375  and  _376
REMARK  154  A    between atoms: _381  and  _383
REMARK  155  A    between atoms: _383  and  _384
REMARK  156  A    between atoms: _383  and  _386
REMARK  157  A    between atoms: _386  and  _387
REMARK  158  A    between atoms: _387  and  _388
REMARK  159  A    between atoms: _388  and  _389
REMARK  160  A    between atoms: _389  and  _390
REMARK  161  A    between atoms: _394  and  _396
REMARK  162  A    between atoms: _396  and  _397
REMARK  163  A    between atoms: _396  and  _399
REMARK  164  A    between atoms: _399  and  _400
REMARK  165  A    between atoms: _405  and  _407
REMARK  166  A    between atoms: _407  and  _408
REMARK  167  A    between atoms: _407  and  _410
REMARK  168  A    between atoms: _410  and  _411
REMARK  169  A    between atoms: _414  and  _416
REMARK  170  A    between atoms: _416  and  _417
REMARK  171  A    between atoms: _416  and  _419
REMARK  172  A    between atoms: _419  and  _420
REMARK  173  A    between atoms: _420  and  _421
REMARK  174  A    between atoms: _421  and  _422
REMARK  175  A    between atoms: _431  and  _433
REMARK  176  A    between atoms: _433  and  _434
REMARK  177  A    between atoms: _433  and  _436
REMARK  178  A    between atoms: _436  and  _437
REMARK  179  A    between atoms: _441  and  _442
REMARK  180  A    between atoms: _447  and  _449
REMARK  181  A    between atoms: _449  and  _450
REMARK  182  A    between atoms: _449  and  _452
REMARK  183  A    between atoms: _455  and  _457
REMARK  184  A    between atoms: _457  and  _458
REMARK  185  A    between atoms: _460  and  _462
REMARK  186  A    between atoms: _462  and  _463
REMARK  187  A    between atoms: _466  and  _468
REMARK  188  A    between atoms: _468  and  _469
REMARK  189  A    between atoms: _468  and  _471
REMARK  190  A    between atoms: _471  and  _472
REMARK  191  A    between atoms: _472  and  _473
REMARK  192  A    between atoms: _473  and  _474
REMARK  193  A    between atoms: _483  and  _485
REMARK  194  A    between atoms: _485  and  _486
REMARK  195  A    between atoms: _485  and  _488
REMARK  196  A    between atoms: _488  and  _489
REMARK  197  A    between atoms: _492  and  _494
REMARK  198  A    between atoms: _494  and  _495
REMARK  199  A    between atoms: _494  and  _497
REMARK  200  A    between atoms: _497  and  _498
REMARK  201  A    between atoms: _498  and  _499
REMARK  202  A    between atoms: _501  and  _503
REMARK  203  A    between atoms: _503  and  _504
REMARK  204  A    between atoms: _503  and  _506
REMARK  205  A    between atoms: _506  and  _507
REMARK  206  A    between atoms: _509  and  _511
REMARK  207  A    between atoms: _511  and  _512
REMARK  208  A    between atoms: _511  and  _514
REMARK  209  A    between atoms: _514  and  _515
REMARK  210  A    between atoms: _515  and  _516
REMARK  211  A    between atoms: _516  and  _517
REMARK  212  A    between atoms: _517  and  _518
REMARK  213  A    between atoms: _522  and  _524
REMARK  214  A    between atoms: _524  and  _525
REMARK  215  A    between atoms: _524  and  _527
REMARK  216  A    between atoms: _527  and  _528
REMARK  217  A    between atoms: _528  and  _529
REMARK  218  A    between atoms: _529  and  _530
REMARK  219  A    between atoms: _530  and  _531
REMARK  220  A    between atoms: _535  and  _537
REMARK  221  A    between atoms: _537  and  _538
REMARK  222  A    between atoms: _537  and  _540
REMARK  223  A    between atoms: _540  and  _541
REMARK  224  A    between atoms: _541  and  _542
REMARK  225  A    between atoms: _544  and  _546
REMARK  226  A    between atoms: _546  and  _547
REMARK  227  A    between atoms: _546  and  _549
REMARK  228  A    between atoms: _549  and  _550
REMARK  229  A    between atoms: _552  and  _554
REMARK  230  A    between atoms: _554  and  _555
REMARK  231  A    between atoms: _554  and  _557
REMARK  232  A    between atoms: _557  and  _558
REMARK  233  A    between atoms: _558  and  _559
REMARK  234  A    between atoms: _559  and  _560
REMARK  235  A    between atoms: _560  and  _561
REMARK  236  A    between atoms: _565  and  _567
REMARK  237  A    between atoms: _567  and  _568
REMARK  238  A    between atoms: _567  and  _570
REMARK  239  A    between atoms: _570  and  _571
REMARK  240  A    between atoms: _573  and  _575
REMARK  241  A    between atoms: _575  and  _576
REMARK  242  A    between atoms: _575  and  _578
REMARK  243  A    between atoms: _578  and  _579
REMARK  244  A    between atoms: _583  and  _584
REMARK  245  A    between atoms: _589  and  _591
REMARK  246  A    between atoms: _591  and  _592
REMARK  247  A    between atoms: _591  and  _594
REMARK  248  A    between atoms: _594  and  _595
REMARK  249  A    between atoms: _600  and  _601
REMARK  250  A    between atoms: _603  and  _605
REMARK  251  A    between atoms: _605  and  _606
REMARK  252  A    between atoms: _605  and  _608
REMARK  253  A    between atoms: _608  and  _609
REMARK                            x       y       z     vdW  Elec       q    Type
REMARK                         _______ _______ _______ _____ _____    ______ ____
ROOT
ATOM      1  O   HOH     1      45.388  19.960  40.930  0.00  0.00    +0.000 OA
ENDROOT
TORSDOF 0
REMARK  Name = ../refined-set-2016/1m83/1m83_pocket.pdb
REMARK  253 active torsions:
REMARK  status: ('A' for Active; 'I' for Inactive)
REMARK    1  A    between atoms: _1  and  _3
REMARK    2  A    between atoms: _3  and  _4
REMARK    3  A    between atoms: _3  and  _6
REMARK    4  A    between atoms: _6  and  _7
REMARK    5  A    between atoms: _9  and  _11
REMARK    6  A    between atoms: _11  and  _12
REMARK    7  A    between atoms: _14  and  _16
REMARK    8  A    between atoms: _16  and  _17
REMARK    9  A    between atoms: _16  and  _19
REMARK   10  A    between atoms: _19  and  _20
REMARK   11  A    between atoms: _23  and  _25
REMARK   12  A    between atoms: _25  and  _26
REMARK   13  A    between atoms: _25  and  _28
REMARK   14  A    between atoms: _28  and  _29
REMARK   15  A    between atoms: _29  and  _30
REMARK   16  A    between atoms: _36  and  _37
REMARK   17  A    between atoms: _42  and  _44
REMARK   18  A    between atoms: _44  and  _45
REMARK   19  A    between atoms: _44  and  _47
REMARK   20  A    between atoms: _47  and  _48
REMARK   21  A    between atoms: _50  and  _52
REMARK   22  A    between atoms: _52  and  _53
REMARK   23  A    between atoms: _55  and  _57
REMARK   24  A    between atoms: _57  and  _58
REMARK   25  A    between atoms: _57  and  _60
REMARK   26  A    between atoms: _63  and  _65
REMARK   27  A    between atoms: _65  and  _66
REMARK   28  A    between atoms: _65  and  _68
REMARK   29  A    between atoms: _68  and  _69
REMARK   30  A    between atoms: _72  and  _74
REMARK   31  A    between atoms: _74  and  _75
REMARK   32  A    between atoms: _74  and  _77
REMARK   33  A    between atoms: _77  and  _78
REMARK   34  A    between atoms: _81  and  _83
REMARK   35  A    between atoms: _83  and  _84
REMARK   36  A    between atoms: _83  and  _86
REMARK   37  A    between atoms: _86  and  _87
REMARK   38  A    between atoms: _90  and  _92
REMARK   39  A    between atoms: _92  and  _93
REMARK   40  A    between atoms: _95  and  _97
REMARK   41  A    between atoms: _97  and  _98
REMARK   42  A    between atoms: _97  and  _100
REMARK   43  A    between atoms: _100  and  _101
REMARK   44  A    between atoms: _106  and  _108
REMARK   45  A    between atoms: _108  and  _109
REMARK   46  A    between atoms: _108  and  _111
REMARK   47  A    between atoms: _111  and  _112
REMARK   48  A    between atoms: _117  and  _118
REMARK   49  A    between atoms: _120  and  _122
REMARK   50  A    between atoms: _122  and  _123
REMARK   51  A    between atoms: _122  and  _125
REMARK   52  A    between atoms: _125  and  _126
REMARK   53  A    between atoms: _129  and  _131
REMARK   54  A    between atoms: _131  and  _132
REMARK   55  A    between atoms: _134  and  _136
REMARK   56  A    between atoms: _136  and  _137
REMARK   57  A    between atoms: _140  and  _142
REMARK   58  A    between atoms: _142  and  _143
REMARK   59  A    between atoms: _142  and  _145
REMARK   60  A    between atoms: _145  and  _146
REMARK   61  A    between atoms: _149  and  _151
REMARK   62  A    between atoms: _151  and  _152
REMARK   63  A    between atoms: _151  and  _154
REMARK   64  A    between atoms: _154  and  _155
REMARK   65  A    between atoms: _155  and  _156
REMARK   66  A    between atoms: _156  and  _157
REMARK   67  A    between atoms: _166  and  _168
REMARK   68  A    between atoms: _168  and  _169
REMARK   69  A    between atoms: _168  and  _171
REMARK   70  A    between atoms: _171  and  _172
REMARK   71  A    between atoms: _172  and  _173
REMARK   72  A    between atoms: _178  and  _180
REMARK   73  A    between atoms: _180  and  _181
REMARK   74  A    between atoms: _180  and  _183
REMARK   75  A    between atoms: _183  and  _184
REMARK   76  A    between atoms: _190  and  _192
REMARK   77  A    between atoms: _192  and  _193
REMARK   78  A    between atoms: _192  and  _195
REMARK   79  A    between atoms: _197  and  _199
REMARK   80  A    between atoms: _199  and  _200
REMARK   81  A    between atoms: _199  and  _202
REMARK   82  A    between atoms: _205  and  _207
REMARK   83  A    between atoms: _207  and  _208
REMARK   84  A    between atoms: _207  and  _210
REMARK   85  A    between atoms: _210  and  _211
REMARK   86  A    between atoms: _216  and  _218
REMARK   87  A    between atoms: _218  and  _219
REMARK   88  A    between atoms: _222  and  _224
REMARK   89  A    between atoms: _224  and  _225
REMARK   90  A    between atoms: _224  and  _227
REMARK   91  A    between atoms: _227  and  _228
REMARK   92  A    between atoms: _231  and  _233
REMARK   93  A    between atoms: _233  and  _234
REMARK   94  A    between atoms: _233  and  _236
REMARK   95  A    between atoms: _239  and  _241
REMARK   96  A    between atoms: _241  and  _242
REMARK   97  A    between atoms: _241  and  _244
REMARK   98  A    between atoms: _244  and  _245
REMARK   99  A    between atoms: _245  and  _246
REMARK  100  A    between atoms: _251  and  _253
REMARK  101  A    between atoms: _253  and  _254
REMARK  102  A    between atoms: _253  and  _256
REMARK  103  A    between atoms: _256  and  _257
REMARK  104  A    between atoms: _260  and  _262
REMARK  105  A    between atoms: _262  and  _263
REMARK  106  A    between atoms: _262  and  _265
REMARK  107  A    between atoms: _265  and  _266
REMARK  108  A    between atoms: _271  and  _272
REMARK  109  A    between atoms: _274  and  _276
REMARK  110  A    between atoms: _276  and  _277
REMARK  111  A    between atoms: _276  and  _279
REMARK  112  A    between atoms: _279  and  _280
REMARK  113  A    between atoms: _280  and  _281
REMARK  114  A    between atoms: _286  and  _288
REMARK  115  A    between atoms: _288  and  _289
REMARK  116  A    between atoms: _288  and  _291
REMARK  117  A    between atoms: _291  and  _292
REMARK  118  A    between atoms: _292  and  _293
REMARK  119  A    between atoms: _293  and  _294
REMARK  120  A    between atoms: _294  and  _295
REMARK  121  A    between atoms: _299  and  _301
REMARK  122  A    between atoms: _301  and  _302
REMARK  123  A    between atoms: _301  and  _304
REMARK  124  A    between atoms: _304  and  _305
REMARK  125  A    between atoms: _310  and  _311
REMARK  126  A    between atoms: _313  and  _315
REMARK  127  A    between atoms: _315  and  _316
REMARK  128  A    between atoms: _315  and  _318
REMARK  129  A    between atoms: _318  and  _319
REMARK  130  A    between atoms: _319  and  _320
REMARK  131  A    between atoms: _322  and  _324
REMARK  132  A    between atoms: _324  and  _325
REMARK  133  A    between atoms: _324  and  _327
REMARK  134  A    between atoms: _331  and  _332
REMARK  135  A    between atoms: _337  and  _339
REMARK  136  A    between atoms: _339  and  _340
REMARK  137  A    between atoms: _339  and  _342
REMARK  138  A    between atoms: _345  and  _347
REMARK  139  A    between atoms: _347  and  _348
REMARK  140  A    between atoms: _350  and  _352
REMARK  141  A    between atoms: _352  and  _353
REMARK  142  A    between atoms: _352  and  _355
REMARK  143  A    between atoms: _355  and  _356
REMARK  144  A    between atoms: _356  and  _357
REMARK  145  A    between atoms: _360  and  _362
REMARK  146  A    between atoms: _362  and  _363
REMARK  147  A    between atoms: _362  and  _365
REMARK  148  A    between atoms: _365  and  _366
REMARK  149  A    between atoms: _369  and  _371
REMARK  150  A    between atoms: _371  and  _372
REMARK  151  A    between atoms: _371  and  _374
REMARK  152  A    between atoms: _374  and  _375
REMARK  153  A    between atoms: _375  and  _376
REMARK  154  A    between atoms: _381  and  _383
REMARK  155  A    between atoms: _383  and  _384
REMARK  156  A    between atoms: _383  and  _386
REMARK  157  A    between atoms: _386  and  _387
REMARK  158  A    between atoms: _387  and  _388
REMARK  159  A    between atoms: _388  and  _389
REMARK  160  A    between atoms: _389  and  _390
REMARK  161  A    between atoms: _394  and  _396
REMARK  162  A    between atoms: _396  and  _397
REMARK  163  A    between atoms: _396  and  _399
REMARK  164  A    between atoms: _399  and  _400
REMARK  165  A    between atoms: _405  and  _407
REMARK  166  A    between atoms: _407  and  _408
REMARK  167  A    between atoms: _407  and  _410
REMARK  168  A    between atoms: _410  and  _411
REMARK  169  A    between atoms: _414  and  _416
REMARK  170  A    between atoms: _416  and  _417
REMARK  171  A    between atoms: _416  and  _419
REMARK  172  A    between atoms: _419  and  _420
REMARK  173  A    between atoms: _420  and  _421
REMARK  174  A    between atoms: _421  and  _422
REMARK  175  A    between atoms: _431  and  _433
REMARK  176  A    between atoms: _433  and  _434
REMARK  177  A    between atoms: _433  and  _436
REMARK  178  A    between atoms: _436  and  _437
REMARK  179  A    between atoms: _441  and  _442
REMARK  180  A    between atoms: _447  and  _449
REMARK  181  A    between atoms: _449  and  _450
REMARK  182  A    between atoms: _449  and  _452
REMARK  183  A    between atoms: _455  and  _457
REMARK  184  A    between atoms: _457  and  _458
REMARK  185  A    between atoms: _460  and  _462
REMARK  186  A    between atoms: _462  and  _463
REMARK  187  A    between atoms: _466  and  _468
REMARK  188  A    between atoms: _468  and  _469
REMARK  189  A    between atoms: _468  and  _471
REMARK  190  A    between atoms: _471  and  _472
REMARK  191  A    between atoms: _472  and  _473
REMARK  192  A    between atoms: _473  and  _474
REMARK  193  A    between atoms: _483  and  _485
REMARK  194  A    between atoms: _485  and  _486
REMARK  195  A    between atoms: _485  and  _488
REMARK  196  A    between atoms: _488  and  _489
REMARK  197  A    between atoms: _492  and  _494
REMARK  198  A    between atoms: _494  and  _495
REMARK  199  A    between atoms: _494  and  _497
REMARK  200  A    between atoms: _497  and  _498
REMARK  201  A    between atoms: _498  and  _499
REMARK  202  A    between atoms: _501  and  _503
REMARK  203  A    between atoms: _503  and  _504
REMARK  204  A    between atoms: _503  and  _506
REMARK  205  A    between atoms: _506  and  _507
REMARK  206  A    between atoms: _509  and  _511
REMARK  207  A    between atoms: _511  and  _512
REMARK  208  A    between atoms: _511  and  _514
REMARK  209  A    between atoms: _514  and  _515
REMARK  210  A    between atoms: _515  and  _516
REMARK  211  A    between atoms: _516  and  _517
REMARK  212  A    between atoms: _517  and  _518
REMARK  213  A    between atoms: _522  and  _524
REMARK  214  A    between atoms: _524  and  _525
REMARK  215  A    between atoms: _524  and  _527
REMARK  216  A    between atoms: _527  and  _528
REMARK  217  A    between atoms: _528  and  _529
REMARK  218  A    between atoms: _529  and  _530
REMARK  219  A    between atoms: _530  and  _531
REMARK  220  A    between atoms: _535  and  _537
REMARK  221  A    between atoms: _537  and  _538
REMARK  222  A    between atoms: _537  and  _540
REMARK  223  A    between atoms: _540  and  _541
REMARK  224  A    between atoms: _541  and  _542
REMARK  225  A    between atoms: _544  and  _546
REMARK  226  A    between atoms: _546  and  _547
REMARK  227  A    between atoms: _546  and  _549
REMARK  228  A    between atoms: _549  and  _550
REMARK  229  A    between atoms: _552  and  _554
REMARK  230  A    between atoms: _554  and  _555
REMARK  231  A    between atoms: _554  and  _557
REMARK  232  A    between atoms: _557  and  _558
REMARK  233  A    between atoms: _558  and  _559
REMARK  234  A    between atoms: _559  and  _560
REMARK  235  A    between atoms: _560  and  _561
REMARK  236  A    between atoms: _565  and  _567
REMARK  237  A    between atoms: _567  and  _568
REMARK  238  A    between atoms: _567  and  _570
REMARK  239  A    between atoms: _570  and  _571
REMARK  240  A    between atoms: _573  and  _575
REMARK  241  A    between atoms: _575  and  _576
REMARK  242  A    between atoms: _575  and  _578
REMARK  243  A    between atoms: _578  and  _579
REMARK  244  A    between atoms: _583  and  _584
REMARK  245  A    between atoms: _589  and  _591
REMARK  246  A    between atoms: _591  and  _592
REMARK  247  A    between atoms: _591  and  _594
REMARK  248  A    between atoms: _594  and  _595
REMARK  249  A    between atoms: _600  and  _601
REMARK  250  A    between atoms: _603  and  _605
REMARK  251  A    between atoms: _605  and  _606
REMARK  252  A    between atoms: _605  and  _608
REMARK  253  A    between atoms: _608  and  _609
REMARK                            x       y       z     vdW  Elec       q    Type
REMARK                         _______ _______ _______ _____ _____    ______ ____
ROOT
ATOM      1  O   HOH     1      53.746  35.762  27.622  0.00  0.00    +0.000 OA
ENDROOT
TORSDOF 0
