REMARK  Name = ../refined-set-2016/1h4w/1h4w_pocket.pdb
REMARK  127 active torsions:
REMARK  status: ('A' for Active; 'I' for Inactive)
REMARK    1  A    between atoms: _1  and  _5
REMARK    2  A    between atoms: _5  and  _6
REMARK    3  A    between atoms: _5  and  _8
REMARK    4  A    between atoms: _8  and  _9
REMARK    5  A    between atoms: _12  and  _14
REMARK    6  A    between atoms: _14  and  _15
REMARK    7  A    between atoms: _14  and  _17
REMARK    8  A    between atoms: _20  and  _22
REMARK    9  A    between atoms: _22  and  _23
REMARK   10  A    between atoms: _22  and  _25
REMARK   11  A    between atoms: _25  and  _26
REMARK   12  A    between atoms: _31  and  _33
REMARK   13  A    between atoms: _33  and  _34
REMARK   14  A    between atoms: _33  and  _36
REMARK   15  A    between atoms: _36  and  _37
REMARK   16  A    between atoms: _40  and  _42
REMARK   17  A    between atoms: _42  and  _43
REMARK   18  A    between atoms: _42  and  _45
REMARK   19  A    between atoms: _45  and  _46
REMARK   20  A    between atoms: _49  and  _51
REMARK   21  A    between atoms: _51  and  _52
REMARK   22  A    between atoms: _51  and  _54
REMARK   23  A    between atoms: _54  and  _55
REMARK   24  A    between atoms: _60  and  _62
REMARK   25  A    between atoms: _62  and  _63
REMARK   26  A    between atoms: _62  and  _65
REMARK   27  A    between atoms: _65  and  _66
REMARK   28  A    between atoms: _68  and  _70
REMARK   29  A    between atoms: _70  and  _71
REMARK   30  A    between atoms: _70  and  _73
REMARK   31  A    between atoms: _73  and  _74
REMARK   32  A    between atoms: _79  and  _80
REMARK   33  A    between atoms: _82  and  _84
REMARK   34  A    between atoms: _84  and  _85
REMARK   35  A    between atoms: _84  and  _87
REMARK   36  A    between atoms: _90  and  _92
REMARK   37  A    between atoms: _92  and  _93
REMARK   38  A    between atoms: _92  and  _95
REMARK   39  A    between atoms: _95  and  _96
REMARK   40  A    between atoms: _96  and  _97
REMARK   41  A    between atoms: _97  and  _98
REMARK   42  A    between atoms: _98  and  _99
REMARK   43  A    between atoms: _103  and  _105
REMARK   44  A    between atoms: _105  and  _106
REMARK   45  A    between atoms: _105  and  _108
REMARK   46  A    between atoms: _108  and  _109
REMARK   47  A    between atoms: _112  and  _114
REMARK   48  A    between atoms: _114  and  _115
REMARK   49  A    between atoms: _114  and  _117
REMARK   50  A    between atoms: _117  and  _118
REMARK   51  A    between atoms: _120  and  _122
REMARK   52  A    between atoms: _122  and  _123
REMARK   53  A    between atoms: _122  and  _125
REMARK   54  A    between atoms: _125  and  _126
REMARK   55  A    between atoms: _126  and  _250
REMARK   56  A    between atoms: _127  and  _129
REMARK   57  A    between atoms: _129  and  _130
REMARK   58  A    between atoms: _129  and  _132
REMARK   59  A    between atoms: _132  and  _133
REMARK   60  A    between atoms: _133  and  _134
REMARK   61  A    between atoms: _139  and  _141
REMARK   62  A    between atoms: _141  and  _142
REMARK   63  A    between atoms: _141  and  _144
REMARK   64  A    between atoms: _144  and  _145
REMARK   65  A    between atoms: _145  and  _146
REMARK   66  A    between atoms: _146  and  _147
REMARK   67  A    between atoms: _156  and  _158
REMARK   68  A    between atoms: _158  and  _159
REMARK   69  A    between atoms: _158  and  _161
REMARK   70  A    between atoms: _161  and  _162
REMARK   71  A    between atoms: _165  and  _167
REMARK   72  A    between atoms: _167  and  _168
REMARK   73  A    between atoms: _167  and  _170
REMARK   74  A    between atoms: _170  and  _171
REMARK   75  A    between atoms: _173  and  _175
REMARK   76  A    between atoms: _175  and  _176
REMARK   77  A    between atoms: _178  and  _180
REMARK   78  A    between atoms: _180  and  _181
REMARK   79  A    between atoms: _183  and  _185
REMARK   80  A    between atoms: _185  and  _186
REMARK   81  A    between atoms: _185  and  _188
REMARK   82  A    between atoms: _191  and  _193
REMARK   83  A    between atoms: _193  and  _194
REMARK   84  A    between atoms: _193  and  _196
REMARK   85  A    between atoms: _199  and  _201
REMARK   86  A    between atoms: _201  and  _202
REMARK   87  A    between atoms: _201  and  _204
REMARK   88  A    between atoms: _204  and  _205
REMARK   89  A    between atoms: _207  and  _209
REMARK   90  A    between atoms: _209  and  _210
REMARK   91  A    between atoms: _209  and  _212
REMARK   92  A    between atoms: _212  and  _213
REMARK   93  A    between atoms: _223  and  _225
REMARK   94  A    between atoms: _225  and  _226
REMARK   95  A    between atoms: _228  and  _230
REMARK   96  A    between atoms: _230  and  _231
REMARK   97  A    between atoms: _230  and  _233
REMARK   98  A    between atoms: _233  and  _234
REMARK   99  A    between atoms: _239  and  _241
REMARK  100  A    between atoms: _241  and  _242
REMARK  101  A    between atoms: _244  and  _246
REMARK  102  A    between atoms: _246  and  _247
REMARK  103  A    between atoms: _246  and  _249
REMARK  104  A    between atoms: _249  and  _250
REMARK  105  A    between atoms: _251  and  _253
REMARK  106  A    between atoms: _253  and  _254
REMARK  107  A    between atoms: _257  and  _259
REMARK  108  A    between atoms: _259  and  _260
REMARK  109  A    between atoms: _259  and  _262
REMARK  110  A    between atoms: _262  and  _263
REMARK  111  A    between atoms: _273  and  _275
REMARK  112  A    between atoms: _275  and  _276
REMARK  113  A    between atoms: _275  and  _278
REMARK  114  A    between atoms: _278  and  _279
REMARK  115  A    between atoms: _279  and  _280
REMARK  116  A    between atoms: _280  and  _281
REMARK  117  A    between atoms: _291  and  _292
REMARK  118  A    between atoms: _297  and  _299
REMARK  119  A    between atoms: _299  and  _300
REMARK  120  A    between atoms: _302  and  _304
REMARK  121  A    between atoms: _304  and  _305
REMARK  122  A    between atoms: _304  and  _307
REMARK  123  A    between atoms: _310  and  _312
REMARK  124  A    between atoms: _312  and  _313
REMARK  125  A    between atoms: _312  and  _315
REMARK  126  A    between atoms: _315  and  _316
REMARK  127  A    between atoms: _321  and  _322
REMARK                            x       y       z     vdW  Elec       q    Type
REMARK                         _______ _______ _______ _____ _____    ______ ____
ROOT
ATOM      1  C   ILE A   1      59.613  36.749  40.864  0.00  0.00    +0.202 C 
ATOM      2  O   ILE A   1      60.663  36.222  40.480  0.00  0.00    -0.277 OA
ATOM      3  N   VAL A   2      59.173  37.920  40.413  0.00  0.00    -0.301 N 
ATOM      4  H   VAL A   2      58.266  38.285  40.769  0.00  0.00    +0.150 HD
ENDROOT
BRANCH   1   5
ATOM      5  CA  ILE A   1      58.734  36.059  41.899  0.00  0.00    +0.013 C 
BRANCH   5   6
ATOM      6  N   ILE A   1      58.409  34.673  41.445  0.00  0.00    +0.387 N 
ATOM      7  H1  ILE A   1      57.809  34.208  42.156  0.00  0.00    -0.089 HD
ATOM      8  H2  ILE A   1      59.290  34.133  41.326  0.00  0.00    -0.089 HD
ATOM      9  H3  ILE A   1      57.903  34.717  40.538  0.00  0.00    -0.089 HD
ENDBRANCH   5   6
BRANCH   5  10
ATOM     10  CB  ILE A   1      59.504  36.046  43.245  0.00  0.00    -0.011 C 
ATOM     11  CG2 ILE A   1      59.819  37.483  43.676  0.00  0.00    -0.002 C 
BRANCH  10  12
ATOM     12  CG1 ILE A   1      58.686  35.324  44.324  0.00  0.00    -0.002 C 
ATOM     13  CD1 ILE A   1      57.442  36.071  44.783  0.00  0.00    -0.000 C 
ENDBRANCH  10  12
ENDBRANCH   5  10
ENDBRANCH   1   5
BRANCH   3  14
ATOM     14  CA  VAL A   2      59.915  38.711  39.438  0.00  0.00    +0.137 C 
BRANCH  14  15
ATOM     15  CB  VAL A   2      58.985  39.263  38.334  0.00  0.00    +0.026 C 
ATOM     16  CG2 VAL A   2      58.272  38.119  37.634  0.00  0.00    +0.002 C 
ATOM     17  CG1 VAL A   2      59.795  40.089  37.333  0.00  0.00    +0.002 C 
ENDBRANCH  14  15
BRANCH  14  18
ATOM     18  C   VAL A   2      60.558  39.898  40.153  0.00  0.00    +0.227 C 
ATOM     19  O   VAL A   2      59.891  40.607  40.902  0.00  0.00    -0.286 OA
ENDBRANCH  14  18
ENDBRANCH   3  14
TORSDOF 7
REMARK  Name = ../refined-set-2016/1h4w/1h4w_pocket.pdb
REMARK  127 active torsions:
REMARK  status: ('A' for Active; 'I' for Inactive)
REMARK    1  A    between atoms: _1  and  _5
REMARK    2  A    between atoms: _5  and  _6
REMARK    3  A    between atoms: _5  and  _8
REMARK    4  A    between atoms: _8  and  _9
REMARK    5  A    between atoms: _12  and  _14
REMARK    6  A    between atoms: _14  and  _15
REMARK    7  A    between atoms: _14  and  _17
REMARK    8  A    between atoms: _20  and  _22
REMARK    9  A    between atoms: _22  and  _23
REMARK   10  A    between atoms: _22  and  _25
REMARK   11  A    between atoms: _25  and  _26
REMARK   12  A    between atoms: _31  and  _33
REMARK   13  A    between atoms: _33  and  _34
REMARK   14  A    between atoms: _33  and  _36
REMARK   15  A    between atoms: _36  and  _37
REMARK   16  A    between atoms: _40  and  _42
REMARK   17  A    between atoms: _42  and  _43
REMARK   18  A    between atoms: _42  and  _45
REMARK   19  A    between atoms: _45  and  _46
REMARK   20  A    between atoms: _49  and  _51
REMARK   21  A    between atoms: _51  and  _52
REMARK   22  A    between atoms: _51  and  _54
REMARK   23  A    between atoms: _54  and  _55
REMARK   24  A    between atoms: _60  and  _62
REMARK   25  A    between atoms: _62  and  _63
REMARK   26  A    between atoms: _62  and  _65
REMARK   27  A    between atoms: _65  and  _66
REMARK   28  A    between atoms: _68  and  _70
REMARK   29  A    between atoms: _70  and  _71
REMARK   30  A    between atoms: _70  and  _73
REMARK   31  A    between atoms: _73  and  _74
REMARK   32  A    between atoms: _79  and  _80
REMARK   33  A    between atoms: _82  and  _84
REMARK   34  A    between atoms: _84  and  _85
REMARK   35  A    between atoms: _84  and  _87
REMARK   36  A    between atoms: _90  and  _92
REMARK   37  A    between atoms: _92  and  _93
REMARK   38  A    between atoms: _92  and  _95
REMARK   39  A    between atoms: _95  and  _96
REMARK   40  A    between atoms: _96  and  _97
REMARK   41  A    between atoms: _97  and  _98
REMARK   42  A    between atoms: _98  and  _99
REMARK   43  A    between atoms: _103  and  _105
REMARK   44  A    between atoms: _105  and  _106
REMARK   45  A    between atoms: _105  and  _108
REMARK   46  A    between atoms: _108  and  _109
REMARK   47  A    between atoms: _112  and  _114
REMARK   48  A    between atoms: _114  and  _115
REMARK   49  A    between atoms: _114  and  _117
REMARK   50  A    between atoms: _117  and  _118
REMARK   51  A    between atoms: _120  and  _122
REMARK   52  A    between atoms: _122  and  _123
REMARK   53  A    between atoms: _122  and  _125
REMARK   54  A    between atoms: _125  and  _126
REMARK   55  A    between atoms: _126  and  _250
REMARK   56  A    between atoms: _127  and  _129
REMARK   57  A    between atoms: _129  and  _130
REMARK   58  A    between atoms: _129  and  _132
REMARK   59  A    between atoms: _132  and  _133
REMARK   60  A    between atoms: _133  and  _134
REMARK   61  A    between atoms: _139  and  _141
REMARK   62  A    between atoms: _141  and  _142
REMARK   63  A    between atoms: _141  and  _144
REMARK   64  A    between atoms: _144  and  _145
REMARK   65  A    between atoms: _145  and  _146
REMARK   66  A    between atoms: _146  and  _147
REMARK   67  A    between atoms: _156  and  _158
REMARK   68  A    between atoms: _158  and  _159
REMARK   69  A    between atoms: _158  and  _161
REMARK   70  A    between atoms: _161  and  _162
REMARK   71  A    between atoms: _165  and  _167
REMARK   72  A    between atoms: _167  and  _168
REMARK   73  A    between atoms: _167  and  _170
REMARK   74  A    between atoms: _170  and  _171
REMARK   75  A    between atoms: _173  and  _175
REMARK   76  A    between atoms: _175  and  _176
REMARK   77  A    between atoms: _178  and  _180
REMARK   78  A    between atoms: _180  and  _181
REMARK   79  A    between atoms: _183  and  _185
REMARK   80  A    between atoms: _185  and  _186
REMARK   81  A    between atoms: _185  and  _188
REMARK   82  A    between atoms: _191  and  _193
REMARK   83  A    between atoms: _193  and  _194
REMARK   84  A    between atoms: _193  and  _196
REMARK   85  A    between atoms: _199  and  _201
REMARK   86  A    between atoms: _201  and  _202
REMARK   87  A    between atoms: _201  and  _204
REMARK   88  A    between atoms: _204  and  _205
REMARK   89  A    between atoms: _207  and  _209
REMARK   90  A    between atoms: _209  and  _210
REMARK   91  A    between atoms: _209  and  _212
REMARK   92  A    between atoms: _212  and  _213
REMARK   93  A    between atoms: _223  and  _225
REMARK   94  A    between atoms: _225  and  _226
REMARK   95  A    between atoms: _228  and  _230
REMARK   96  A    between atoms: _230  and  _231
REMARK   97  A    between atoms: _230  and  _233
REMARK   98  A    between atoms: _233  and  _234
REMARK   99  A    between atoms: _239  and  _241
REMARK  100  A    between atoms: _241  and  _242
REMARK  101  A    between atoms: _244  and  _246
REMARK  102  A    between atoms: _246  and  _247
REMARK  103  A    between atoms: _246  and  _249
REMARK  104  A    between atoms: _249  and  _250
REMARK  105  A    between atoms: _251  and  _253
REMARK  106  A    between atoms: _253  and  _254
REMARK  107  A    between atoms: _257  and  _259
REMARK  108  A    between atoms: _259  and  _260
REMARK  109  A    between atoms: _259  and  _262
REMARK  110  A    between atoms: _262  and  _263
REMARK  111  A    between atoms: _273  and  _275
REMARK  112  A    between atoms: _275  and  _276
REMARK  113  A    between atoms: _275  and  _278
REMARK  114  A    between atoms: _278  and  _279
REMARK  115  A    between atoms: _279  and  _280
REMARK  116  A    between atoms: _280  and  _281
REMARK  117  A    between atoms: _291  and  _292
REMARK  118  A    between atoms: _297  and  _299
REMARK  119  A    between atoms: _299  and  _300
REMARK  120  A    between atoms: _302  and  _304
REMARK  121  A    between atoms: _304  and  _305
REMARK  122  A    between atoms: _304  and  _307
REMARK  123  A    between atoms: _310  and  _312
REMARK  124  A    between atoms: _312  and  _313
REMARK  125  A    between atoms: _312  and  _315
REMARK  126  A    between atoms: _315  and  _316
REMARK  127  A    between atoms: _321  and  _322
REMARK                            x       y       z     vdW  Elec       q    Type
REMARK                         _______ _______ _______ _____ _____    ______ ____
ROOT
ATOM      1  CB  HIS A   1      42.876  28.821  41.394  0.00  0.00    +0.072 C 
ENDROOT
BRANCH   1   2
ATOM      2  CG  HIS A   1      44.219  29.469  41.534  0.00  0.00    +0.082 A 
ATOM      3  ND1 HIS A   1      44.456  30.518  42.397  0.00  0.00    -0.227 NA
ATOM      4  CE1 HIS A   1      45.706  30.924  42.261  0.00  0.00    +0.199 A 
ATOM      5  NE2 HIS A   1      46.289  30.175  41.343  0.00  0.00    -0.221 NA
ATOM      6  CD2 HIS A   1      45.382  29.255  40.874  0.00  0.00    +0.115 A 
ENDBRANCH   1   2
BRANCH   1   7
ATOM      7  CA  HIS A   1      42.677  27.553  42.247  0.00  0.00    +0.139 C 
BRANCH   7   8
ATOM      8  N   HIS A   1      42.391  27.880  43.637  0.00  0.00    -0.239 NA
ATOM      9  H   HIS A   1      42.621  28.820  44.019  0.00  0.00    +0.142 HD
ENDBRANCH   7   8
BRANCH   7  10
ATOM     10  C   HIS A   1      43.861  26.599  42.113  0.00  0.00    +0.224 C 
ATOM     11  O   HIS A   1      44.190  26.157  41.014  0.00  0.00    -0.287 OA
ENDBRANCH   7  10
ENDBRANCH   1   7
TORSDOF 4
REMARK  Name = ../refined-set-2016/1h4w/1h4w_pocket.pdb
REMARK  127 active torsions:
REMARK  status: ('A' for Active; 'I' for Inactive)
REMARK    1  A    between atoms: _1  and  _5
REMARK    2  A    between atoms: _5  and  _6
REMARK    3  A    between atoms: _5  and  _8
REMARK    4  A    between atoms: _8  and  _9
REMARK    5  A    between atoms: _12  and  _14
REMARK    6  A    between atoms: _14  and  _15
REMARK    7  A    between atoms: _14  and  _17
REMARK    8  A    between atoms: _20  and  _22
REMARK    9  A    between atoms: _22  and  _23
REMARK   10  A    between atoms: _22  and  _25
REMARK   11  A    between atoms: _25  and  _26
REMARK   12  A    between atoms: _31  and  _33
REMARK   13  A    between atoms: _33  and  _34
REMARK   14  A    between atoms: _33  and  _36
REMARK   15  A    between atoms: _36  and  _37
REMARK   16  A    between atoms: _40  and  _42
REMARK   17  A    between atoms: _42  and  _43
REMARK   18  A    between atoms: _42  and  _45
REMARK   19  A    between atoms: _45  and  _46
REMARK   20  A    between atoms: _49  and  _51
REMARK   21  A    between atoms: _51  and  _52
REMARK   22  A    between atoms: _51  and  _54
REMARK   23  A    between atoms: _54  and  _55
REMARK   24  A    between atoms: _60  and  _62
REMARK   25  A    between atoms: _62  and  _63
REMARK   26  A    between atoms: _62  and  _65
REMARK   27  A    between atoms: _65  and  _66
REMARK   28  A    between atoms: _68  and  _70
REMARK   29  A    between atoms: _70  and  _71
REMARK   30  A    between atoms: _70  and  _73
REMARK   31  A    between atoms: _73  and  _74
REMARK   32  A    between atoms: _79  and  _80
REMARK   33  A    between atoms: _82  and  _84
REMARK   34  A    between atoms: _84  and  _85
REMARK   35  A    between atoms: _84  and  _87
REMARK   36  A    between atoms: _90  and  _92
REMARK   37  A    between atoms: _92  and  _93
REMARK   38  A    between atoms: _92  and  _95
REMARK   39  A    between atoms: _95  and  _96
REMARK   40  A    between atoms: _96  and  _97
REMARK   41  A    between atoms: _97  and  _98
REMARK   42  A    between atoms: _98  and  _99
REMARK   43  A    between atoms: _103  and  _105
REMARK   44  A    between atoms: _105  and  _106
REMARK   45  A    between atoms: _105  and  _108
REMARK   46  A    between atoms: _108  and  _109
REMARK   47  A    between atoms: _112  and  _114
REMARK   48  A    between atoms: _114  and  _115
REMARK   49  A    between atoms: _114  and  _117
REMARK   50  A    between atoms: _117  and  _118
REMARK   51  A    between atoms: _120  and  _122
REMARK   52  A    between atoms: _122  and  _123
REMARK   53  A    between atoms: _122  and  _125
REMARK   54  A    between atoms: _125  and  _126
REMARK   55  A    between atoms: _126  and  _250
REMARK   56  A    between atoms: _127  and  _129
REMARK   57  A    between atoms: _129  and  _130
REMARK   58  A    between atoms: _129  and  _132
REMARK   59  A    between atoms: _132  and  _133
REMARK   60  A    between atoms: _133  and  _134
REMARK   61  A    between atoms: _139  and  _141
REMARK   62  A    between atoms: _141  and  _142
REMARK   63  A    between atoms: _141  and  _144
REMARK   64  A    between atoms: _144  and  _145
REMARK   65  A    between atoms: _145  and  _146
REMARK   66  A    between atoms: _146  and  _147
REMARK   67  A    between atoms: _156  and  _158
REMARK   68  A    between atoms: _158  and  _159
REMARK   69  A    between atoms: _158  and  _161
REMARK   70  A    between atoms: _161  and  _162
REMARK   71  A    between atoms: _165  and  _167
REMARK   72  A    between atoms: _167  and  _168
REMARK   73  A    between atoms: _167  and  _170
REMARK   74  A    between atoms: _170  and  _171
REMARK   75  A    between atoms: _173  and  _175
REMARK   76  A    between atoms: _175  and  _176
REMARK   77  A    between atoms: _178  and  _180
REMARK   78  A    between atoms: _180  and  _181
REMARK   79  A    between atoms: _183  and  _185
REMARK   80  A    between atoms: _185  and  _186
REMARK   81  A    between atoms: _185  and  _188
REMARK   82  A    between atoms: _191  and  _193
REMARK   83  A    between atoms: _193  and  _194
REMARK   84  A    between atoms: _193  and  _196
REMARK   85  A    between atoms: _199  and  _201
REMARK   86  A    between atoms: _201  and  _202
REMARK   87  A    between atoms: _201  and  _204
REMARK   88  A    between atoms: _204  and  _205
REMARK   89  A    between atoms: _207  and  _209
REMARK   90  A    between atoms: _209  and  _210
REMARK   91  A    between atoms: _209  and  _212
REMARK   92  A    between atoms: _212  and  _213
REMARK   93  A    between atoms: _223  and  _225
REMARK   94  A    between atoms: _225  and  _226
REMARK   95  A    between atoms: _228  and  _230
REMARK   96  A    between atoms: _230  and  _231
REMARK   97  A    between atoms: _230  and  _233
REMARK   98  A    between atoms: _233  and  _234
REMARK   99  A    between atoms: _239  and  _241
REMARK  100  A    between atoms: _241  and  _242
REMARK  101  A    between atoms: _244  and  _246
REMARK  102  A    between atoms: _246  and  _247
REMARK  103  A    between atoms: _246  and  _249
REMARK  104  A    between atoms: _249  and  _250
REMARK  105  A    between atoms: _251  and  _253
REMARK  106  A    between atoms: _253  and  _254
REMARK  107  A    between atoms: _257  and  _259
REMARK  108  A    between atoms: _259  and  _260
REMARK  109  A    between atoms: _259  and  _262
REMARK  110  A    between atoms: _262  and  _263
REMARK  111  A    between atoms: _273  and  _275
REMARK  112  A    between atoms: _275  and  _276
REMARK  113  A    between atoms: _275  and  _278
REMARK  114  A    between atoms: _278  and  _279
REMARK  115  A    between atoms: _279  and  _280
REMARK  116  A    between atoms: _280  and  _281
REMARK  117  A    between atoms: _291  and  _292
REMARK  118  A    between atoms: _297  and  _299
REMARK  119  A    between atoms: _299  and  _300
REMARK  120  A    between atoms: _302  and  _304
REMARK  121  A    between atoms: _304  and  _305
REMARK  122  A    between atoms: _304  and  _307
REMARK  123  A    between atoms: _310  and  _312
REMARK  124  A    between atoms: _312  and  _313
REMARK  125  A    between atoms: _312  and  _315
REMARK  126  A    between atoms: _315  and  _316
REMARK  127  A    between atoms: _321  and  _322
REMARK                            x       y       z     vdW  Elec       q    Type
REMARK                         _______ _______ _______ _____ _____    ______ ____
ROOT
ATOM      1  CA  LEU A   1      38.498  33.828  41.602  0.00  0.00    +0.133 C 
ENDROOT
BRANCH   1   2
ATOM      2  N   LEU A   1      37.481  34.055  40.579  0.00  0.00    -0.239 NA
ATOM      3  H   LEU A   1      36.928  33.244  40.236  0.00  0.00    +0.142 HD
ENDBRANCH   1   2
BRANCH   1   4
ATOM      4  C   LEU A   1      38.107  34.470  42.930  0.00  0.00    +0.224 C 
ATOM      5  O   LEU A   1      38.956  34.747  43.781  0.00  0.00    -0.287 OA
ENDBRANCH   1   4
BRANCH   1   6
ATOM      6  CB  LEU A   1      39.865  34.347  41.139  0.00  0.00    +0.025 C 
BRANCH   6   7
ATOM      7  CG  LEU A   1      40.509  33.534  40.011  0.00  0.00    +0.002 C 
ATOM      8  CD2 LEU A   1      40.649  32.079  40.442  0.00  0.00    +0.000 C 
ATOM      9  CD1 LEU A   1      41.868  34.116  39.666  0.00  0.00    +0.000 C 
ENDBRANCH   6   7
ENDBRANCH   1   6
TORSDOF 4
REMARK  Name = ../refined-set-2016/1h4w/1h4w_pocket.pdb
REMARK  127 active torsions:
REMARK  status: ('A' for Active; 'I' for Inactive)
REMARK    1  A    between atoms: _1  and  _5
REMARK    2  A    between atoms: _5  and  _6
REMARK    3  A    between atoms: _5  and  _8
REMARK    4  A    between atoms: _8  and  _9
REMARK    5  A    between atoms: _12  and  _14
REMARK    6  A    between atoms: _14  and  _15
REMARK    7  A    between atoms: _14  and  _17
REMARK    8  A    between atoms: _20  and  _22
REMARK    9  A    between atoms: _22  and  _23
REMARK   10  A    between atoms: _22  and  _25
REMARK   11  A    between atoms: _25  and  _26
REMARK   12  A    between atoms: _31  and  _33
REMARK   13  A    between atoms: _33  and  _34
REMARK   14  A    between atoms: _33  and  _36
REMARK   15  A    between atoms: _36  and  _37
REMARK   16  A    between atoms: _40  and  _42
REMARK   17  A    between atoms: _42  and  _43
REMARK   18  A    between atoms: _42  and  _45
REMARK   19  A    between atoms: _45  and  _46
REMARK   20  A    between atoms: _49  and  _51
REMARK   21  A    between atoms: _51  and  _52
REMARK   22  A    between atoms: _51  and  _54
REMARK   23  A    between atoms: _54  and  _55
REMARK   24  A    between atoms: _60  and  _62
REMARK   25  A    between atoms: _62  and  _63
REMARK   26  A    between atoms: _62  and  _65
REMARK   27  A    between atoms: _65  and  _66
REMARK   28  A    between atoms: _68  and  _70
REMARK   29  A    between atoms: _70  and  _71
REMARK   30  A    between atoms: _70  and  _73
REMARK   31  A    between atoms: _73  and  _74
REMARK   32  A    between atoms: _79  and  _80
REMARK   33  A    between atoms: _82  and  _84
REMARK   34  A    between atoms: _84  and  _85
REMARK   35  A    between atoms: _84  and  _87
REMARK   36  A    between atoms: _90  and  _92
REMARK   37  A    between atoms: _92  and  _93
REMARK   38  A    between atoms: _92  and  _95
REMARK   39  A    between atoms: _95  and  _96
REMARK   40  A    between atoms: _96  and  _97
REMARK   41  A    between atoms: _97  and  _98
REMARK   42  A    between atoms: _98  and  _99
REMARK   43  A    between atoms: _103  and  _105
REMARK   44  A    between atoms: _105  and  _106
REMARK   45  A    between atoms: _105  and  _108
REMARK   46  A    between atoms: _108  and  _109
REMARK   47  A    between atoms: _112  and  _114
REMARK   48  A    between atoms: _114  and  _115
REMARK   49  A    between atoms: _114  and  _117
REMARK   50  A    between atoms: _117  and  _118
REMARK   51  A    between atoms: _120  and  _122
REMARK   52  A    between atoms: _122  and  _123
REMARK   53  A    between atoms: _122  and  _125
REMARK   54  A    between atoms: _125  and  _126
REMARK   55  A    between atoms: _126  and  _250
REMARK   56  A    between atoms: _127  and  _129
REMARK   57  A    between atoms: _129  and  _130
REMARK   58  A    between atoms: _129  and  _132
REMARK   59  A    between atoms: _132  and  _133
REMARK   60  A    between atoms: _133  and  _134
REMARK   61  A    between atoms: _139  and  _141
REMARK   62  A    between atoms: _141  and  _142
REMARK   63  A    between atoms: _141  and  _144
REMARK   64  A    between atoms: _144  and  _145
REMARK   65  A    between atoms: _145  and  _146
REMARK   66  A    between atoms: _146  and  _147
REMARK   67  A    between atoms: _156  and  _158
REMARK   68  A    between atoms: _158  and  _159
REMARK   69  A    between atoms: _158  and  _161
REMARK   70  A    between atoms: _161  and  _162
REMARK   71  A    between atoms: _165  and  _167
REMARK   72  A    between atoms: _167  and  _168
REMARK   73  A    between atoms: _167  and  _170
REMARK   74  A    between atoms: _170  and  _171
REMARK   75  A    between atoms: _173  and  _175
REMARK   76  A    between atoms: _175  and  _176
REMARK   77  A    between atoms: _178  and  _180
REMARK   78  A    between atoms: _180  and  _181
REMARK   79  A    between atoms: _183  and  _185
REMARK   80  A    between atoms: _185  and  _186
REMARK   81  A    between atoms: _185  and  _188
REMARK   82  A    between atoms: _191  and  _193
REMARK   83  A    between atoms: _193  and  _194
REMARK   84  A    between atoms: _193  and  _196
REMARK   85  A    between atoms: _199  and  _201
REMARK   86  A    between atoms: _201  and  _202
REMARK   87  A    between atoms: _201  and  _204
REMARK   88  A    between atoms: _204  and  _205
REMARK   89  A    between atoms: _207  and  _209
REMARK   90  A    between atoms: _209  and  _210
REMARK   91  A    between atoms: _209  and  _212
REMARK   92  A    between atoms: _212  and  _213
REMARK   93  A    between atoms: _223  and  _225
REMARK   94  A    between atoms: _225  and  _226
REMARK   95  A    between atoms: _228  and  _230
REMARK   96  A    between atoms: _230  and  _231
REMARK   97  A    between atoms: _230  and  _233
REMARK   98  A    between atoms: _233  and  _234
REMARK   99  A    between atoms: _239  and  _241
REMARK  100  A    between atoms: _241  and  _242
REMARK  101  A    between atoms: _244  and  _246
REMARK  102  A    between atoms: _246  and  _247
REMARK  103  A    between atoms: _246  and  _249
REMARK  104  A    between atoms: _249  and  _250
REMARK  105  A    between atoms: _251  and  _253
REMARK  106  A    between atoms: _253  and  _254
REMARK  107  A    between atoms: _257  and  _259
REMARK  108  A    between atoms: _259  and  _260
REMARK  109  A    between atoms: _259  and  _262
REMARK  110  A    between atoms: _262  and  _263
REMARK  111  A    between atoms: _273  and  _275
REMARK  112  A    between atoms: _275  and  _276
REMARK  113  A    between atoms: _275  and  _278
REMARK  114  A    between atoms: _278  and  _279
REMARK  115  A    between atoms: _279  and  _280
REMARK  116  A    between atoms: _280  and  _281
REMARK  117  A    between atoms: _291  and  _292
REMARK  118  A    between atoms: _297  and  _299
REMARK  119  A    between atoms: _299  and  _300
REMARK  120  A    between atoms: _302  and  _304
REMARK  121  A    between atoms: _304  and  _305
REMARK  122  A    between atoms: _304  and  _307
REMARK  123  A    between atoms: _310  and  _312
REMARK  124  A    between atoms: _312  and  _313
REMARK  125  A    between atoms: _312  and  _315
REMARK  126  A    between atoms: _315  and  _316
REMARK  127  A    between atoms: _321  and  _322
REMARK                            x       y       z     vdW  Elec       q    Type
REMARK                         _______ _______ _______ _____ _____    ______ ____
ROOT
ATOM      1  CA  ILE A   1      55.967  37.584  49.372  0.00  0.00    +0.133 C 
ENDROOT
BRANCH   1   2
ATOM      2  N   ILE A   1      56.614  38.556  50.248  0.00  0.00    -0.239 NA
ATOM      3  H   ILE A   1      57.310  39.210  49.836  0.00  0.00    +0.142 HD
ENDBRANCH   1   2
BRANCH   1   4
ATOM      4  C   ILE A   1      57.064  36.614  48.954  0.00  0.00    +0.224 C 
ATOM      5  O   ILE A   1      58.192  37.025  48.687  0.00  0.00    -0.287 OA
ENDBRANCH   1   4
BRANCH   1   6
ATOM      6  CB  ILE A   1      55.383  38.277  48.124  0.00  0.00    +0.023 C 
ATOM      7  CG2 ILE A   1      54.644  37.262  47.259  0.00  0.00    +0.002 C 
BRANCH   6   8
ATOM      8  CG1 ILE A   1      54.423  39.389  48.557  0.00  0.00    +0.002 C 
ATOM      9  CD1 ILE A   1      53.928  40.254  47.409  0.00  0.00    +0.000 C 
ENDBRANCH   6   8
ENDBRANCH   1   6
TORSDOF 4
REMARK  Name = ../refined-set-2016/1h4w/1h4w_pocket.pdb
REMARK  127 active torsions:
REMARK  status: ('A' for Active; 'I' for Inactive)
REMARK    1  A    between atoms: _1  and  _5
REMARK    2  A    between atoms: _5  and  _6
REMARK    3  A    between atoms: _5  and  _8
REMARK    4  A    between atoms: _8  and  _9
REMARK    5  A    between atoms: _12  and  _14
REMARK    6  A    between atoms: _14  and  _15
REMARK    7  A    between atoms: _14  and  _17
REMARK    8  A    between atoms: _20  and  _22
REMARK    9  A    between atoms: _22  and  _23
REMARK   10  A    between atoms: _22  and  _25
REMARK   11  A    between atoms: _25  and  _26
REMARK   12  A    between atoms: _31  and  _33
REMARK   13  A    between atoms: _33  and  _34
REMARK   14  A    between atoms: _33  and  _36
REMARK   15  A    between atoms: _36  and  _37
REMARK   16  A    between atoms: _40  and  _42
REMARK   17  A    between atoms: _42  and  _43
REMARK   18  A    between atoms: _42  and  _45
REMARK   19  A    between atoms: _45  and  _46
REMARK   20  A    between atoms: _49  and  _51
REMARK   21  A    between atoms: _51  and  _52
REMARK   22  A    between atoms: _51  and  _54
REMARK   23  A    between atoms: _54  and  _55
REMARK   24  A    between atoms: _60  and  _62
REMARK   25  A    between atoms: _62  and  _63
REMARK   26  A    between atoms: _62  and  _65
REMARK   27  A    between atoms: _65  and  _66
REMARK   28  A    between atoms: _68  and  _70
REMARK   29  A    between atoms: _70  and  _71
REMARK   30  A    between atoms: _70  and  _73
REMARK   31  A    between atoms: _73  and  _74
REMARK   32  A    between atoms: _79  and  _80
REMARK   33  A    between atoms: _82  and  _84
REMARK   34  A    between atoms: _84  and  _85
REMARK   35  A    between atoms: _84  and  _87
REMARK   36  A    between atoms: _90  and  _92
REMARK   37  A    between atoms: _92  and  _93
REMARK   38  A    between atoms: _92  and  _95
REMARK   39  A    between atoms: _95  and  _96
REMARK   40  A    between atoms: _96  and  _97
REMARK   41  A    between atoms: _97  and  _98
REMARK   42  A    between atoms: _98  and  _99
REMARK   43  A    between atoms: _103  and  _105
REMARK   44  A    between atoms: _105  and  _106
REMARK   45  A    between atoms: _105  and  _108
REMARK   46  A    between atoms: _108  and  _109
REMARK   47  A    between atoms: _112  and  _114
REMARK   48  A    between atoms: _114  and  _115
REMARK   49  A    between atoms: _114  and  _117
REMARK   50  A    between atoms: _117  and  _118
REMARK   51  A    between atoms: _120  and  _122
REMARK   52  A    between atoms: _122  and  _123
REMARK   53  A    between atoms: _122  and  _125
REMARK   54  A    between atoms: _125  and  _126
REMARK   55  A    between atoms: _126  and  _250
REMARK   56  A    between atoms: _127  and  _129
REMARK   57  A    between atoms: _129  and  _130
REMARK   58  A    between atoms: _129  and  _132
REMARK   59  A    between atoms: _132  and  _133
REMARK   60  A    between atoms: _133  and  _134
REMARK   61  A    between atoms: _139  and  _141
REMARK   62  A    between atoms: _141  and  _142
REMARK   63  A    between atoms: _141  and  _144
REMARK   64  A    between atoms: _144  and  _145
REMARK   65  A    between atoms: _145  and  _146
REMARK   66  A    between atoms: _146  and  _147
REMARK   67  A    between atoms: _156  and  _158
REMARK   68  A    between atoms: _158  and  _159
REMARK   69  A    between atoms: _158  and  _161
REMARK   70  A    between atoms: _161  and  _162
REMARK   71  A    between atoms: _165  and  _167
REMARK   72  A    between atoms: _167  and  _168
REMARK   73  A    between atoms: _167  and  _170
REMARK   74  A    between atoms: _170  and  _171
REMARK   75  A    between atoms: _173  and  _175
REMARK   76  A    between atoms: _175  and  _176
REMARK   77  A    between atoms: _178  and  _180
REMARK   78  A    between atoms: _180  and  _181
REMARK   79  A    between atoms: _183  and  _185
REMARK   80  A    between atoms: _185  and  _186
REMARK   81  A    between atoms: _185  and  _188
REMARK   82  A    between atoms: _191  and  _193
REMARK   83  A    between atoms: _193  and  _194
REMARK   84  A    between atoms: _193  and  _196
REMARK   85  A    between atoms: _199  and  _201
REMARK   86  A    between atoms: _201  and  _202
REMARK   87  A    between atoms: _201  and  _204
REMARK   88  A    between atoms: _204  and  _205
REMARK   89  A    between atoms: _207  and  _209
REMARK   90  A    between atoms: _209  and  _210
REMARK   91  A    between atoms: _209  and  _212
REMARK   92  A    between atoms: _212  and  _213
REMARK   93  A    between atoms: _223  and  _225
REMARK   94  A    between atoms: _225  and  _226
REMARK   95  A    between atoms: _228  and  _230
REMARK   96  A    between atoms: _230  and  _231
REMARK   97  A    between atoms: _230  and  _233
REMARK   98  A    between atoms: _233  and  _234
REMARK   99  A    between atoms: _239  and  _241
REMARK  100  A    between atoms: _241  and  _242
REMARK  101  A    between atoms: _244  and  _246
REMARK  102  A    between atoms: _246  and  _247
REMARK  103  A    between atoms: _246  and  _249
REMARK  104  A    between atoms: _249  and  _250
REMARK  105  A    between atoms: _251  and  _253
REMARK  106  A    between atoms: _253  and  _254
REMARK  107  A    between atoms: _257  and  _259
REMARK  108  A    between atoms: _259  and  _260
REMARK  109  A    between atoms: _259  and  _262
REMARK  110  A    between atoms: _262  and  _263
REMARK  111  A    between atoms: _273  and  _275
REMARK  112  A    between atoms: _275  and  _276
REMARK  113  A    between atoms: _275  and  _278
REMARK  114  A    between atoms: _278  and  _279
REMARK  115  A    between atoms: _279  and  _280
REMARK  116  A    between atoms: _280  and  _281
REMARK  117  A    between atoms: _291  and  _292
REMARK  118  A    between atoms: _297  and  _299
REMARK  119  A    between atoms: _299  and  _300
REMARK  120  A    between atoms: _302  and  _304
REMARK  121  A    between atoms: _304  and  _305
REMARK  122  A    between atoms: _304  and  _307
REMARK  123  A    between atoms: _310  and  _312
REMARK  124  A    between atoms: _312  and  _313
REMARK  125  A    between atoms: _312  and  _315
REMARK  126  A    between atoms: _315  and  _316
REMARK  127  A    between atoms: _321  and  _322
REMARK                            x       y       z     vdW  Elec       q    Type
REMARK                         _______ _______ _______ _____ _____    ______ ____
ROOT
ATOM      1  CB  ASN A   1      57.196  32.591  36.261  0.00  0.00    +0.110 C 
ENDROOT
BRANCH   1   2
ATOM      2  CG  ASN A   1      57.837  32.830  34.899  0.00  0.00    +0.221 C 
ATOM      3  OD1 ASN A   1      59.059  32.898  34.771  0.00  0.00    -0.275 OA
ATOM      4  ND2 ASN A   1      57.001  32.967  33.873  0.00  0.00    -0.329 N 
ATOM      5 HD21 ASN A   1      55.974  32.902  34.026  0.00  0.00    +0.145 HD
ATOM      6 HD22 ASN A   1      57.374  33.139  32.918  0.00  0.00    +0.145 HD
ENDBRANCH   1   2
BRANCH   1   7
ATOM      7  CA  ASN A   1      58.220  32.315  37.372  0.00  0.00    +0.142 C 
BRANCH   7   8
ATOM      8  N   ASN A   1      57.525  31.737  38.523  0.00  0.00    -0.239 NA
ATOM      9  H   ASN A   1      56.511  31.523  38.431  0.00  0.00    +0.142 HD
ENDBRANCH   7   8
BRANCH   7  10
ATOM     10  C   ASN A   1      58.943  33.605  37.764  0.00  0.00    +0.225 C 
ATOM     11  O   ASN A   1      58.409  34.418  38.520  0.00  0.00    -0.287 OA
ENDBRANCH   7  10
ENDBRANCH   1   7
TORSDOF 4
REMARK  Name = ../refined-set-2016/1h4w/1h4w_pocket.pdb
REMARK  127 active torsions:
REMARK  status: ('A' for Active; 'I' for Inactive)
REMARK    1  A    between atoms: _1  and  _5
REMARK    2  A    between atoms: _5  and  _6
REMARK    3  A    between atoms: _5  and  _8
REMARK    4  A    between atoms: _8  and  _9
REMARK    5  A    between atoms: _12  and  _14
REMARK    6  A    between atoms: _14  and  _15
REMARK    7  A    between atoms: _14  and  _17
REMARK    8  A    between atoms: _20  and  _22
REMARK    9  A    between atoms: _22  and  _23
REMARK   10  A    between atoms: _22  and  _25
REMARK   11  A    between atoms: _25  and  _26
REMARK   12  A    between atoms: _31  and  _33
REMARK   13  A    between atoms: _33  and  _34
REMARK   14  A    between atoms: _33  and  _36
REMARK   15  A    between atoms: _36  and  _37
REMARK   16  A    between atoms: _40  and  _42
REMARK   17  A    between atoms: _42  and  _43
REMARK   18  A    between atoms: _42  and  _45
REMARK   19  A    between atoms: _45  and  _46
REMARK   20  A    between atoms: _49  and  _51
REMARK   21  A    between atoms: _51  and  _52
REMARK   22  A    between atoms: _51  and  _54
REMARK   23  A    between atoms: _54  and  _55
REMARK   24  A    between atoms: _60  and  _62
REMARK   25  A    between atoms: _62  and  _63
REMARK   26  A    between atoms: _62  and  _65
REMARK   27  A    between atoms: _65  and  _66
REMARK   28  A    between atoms: _68  and  _70
REMARK   29  A    between atoms: _70  and  _71
REMARK   30  A    between atoms: _70  and  _73
REMARK   31  A    between atoms: _73  and  _74
REMARK   32  A    between atoms: _79  and  _80
REMARK   33  A    between atoms: _82  and  _84
REMARK   34  A    between atoms: _84  and  _85
REMARK   35  A    between atoms: _84  and  _87
REMARK   36  A    between atoms: _90  and  _92
REMARK   37  A    between atoms: _92  and  _93
REMARK   38  A    between atoms: _92  and  _95
REMARK   39  A    between atoms: _95  and  _96
REMARK   40  A    between atoms: _96  and  _97
REMARK   41  A    between atoms: _97  and  _98
REMARK   42  A    between atoms: _98  and  _99
REMARK   43  A    between atoms: _103  and  _105
REMARK   44  A    between atoms: _105  and  _106
REMARK   45  A    between atoms: _105  and  _108
REMARK   46  A    between atoms: _108  and  _109
REMARK   47  A    between atoms: _112  and  _114
REMARK   48  A    between atoms: _114  and  _115
REMARK   49  A    between atoms: _114  and  _117
REMARK   50  A    between atoms: _117  and  _118
REMARK   51  A    between atoms: _120  and  _122
REMARK   52  A    between atoms: _122  and  _123
REMARK   53  A    between atoms: _122  and  _125
REMARK   54  A    between atoms: _125  and  _126
REMARK   55  A    between atoms: _126  and  _250
REMARK   56  A    between atoms: _127  and  _129
REMARK   57  A    between atoms: _129  and  _130
REMARK   58  A    between atoms: _129  and  _132
REMARK   59  A    between atoms: _132  and  _133
REMARK   60  A    between atoms: _133  and  _134
REMARK   61  A    between atoms: _139  and  _141
REMARK   62  A    between atoms: _141  and  _142
REMARK   63  A    between atoms: _141  and  _144
REMARK   64  A    between atoms: _144  and  _145
REMARK   65  A    between atoms: _145  and  _146
REMARK   66  A    between atoms: _146  and  _147
REMARK   67  A    between atoms: _156  and  _158
REMARK   68  A    between atoms: _158  and  _159
REMARK   69  A    between atoms: _158  and  _161
REMARK   70  A    between atoms: _161  and  _162
REMARK   71  A    between atoms: _165  and  _167
REMARK   72  A    between atoms: _167  and  _168
REMARK   73  A    between atoms: _167  and  _170
REMARK   74  A    between atoms: _170  and  _171
REMARK   75  A    between atoms: _173  and  _175
REMARK   76  A    between atoms: _175  and  _176
REMARK   77  A    between atoms: _178  and  _180
REMARK   78  A    between atoms: _180  and  _181
REMARK   79  A    between atoms: _183  and  _185
REMARK   80  A    between atoms: _185  and  _186
REMARK   81  A    between atoms: _185  and  _188
REMARK   82  A    between atoms: _191  and  _193
REMARK   83  A    between atoms: _193  and  _194
REMARK   84  A    between atoms: _193  and  _196
REMARK   85  A    between atoms: _199  and  _201
REMARK   86  A    between atoms: _201  and  _202
REMARK   87  A    between atoms: _201  and  _204
REMARK   88  A    between atoms: _204  and  _205
REMARK   89  A    between atoms: _207  and  _209
REMARK   90  A    between atoms: _209  and  _210
REMARK   91  A    between atoms: _209  and  _212
REMARK   92  A    between atoms: _212  and  _213
REMARK   93  A    between atoms: _223  and  _225
REMARK   94  A    between atoms: _225  and  _226
REMARK   95  A    between atoms: _228  and  _230
REMARK   96  A    between atoms: _230  and  _231
REMARK   97  A    between atoms: _230  and  _233
REMARK   98  A    between atoms: _233  and  _234
REMARK   99  A    between atoms: _239  and  _241
REMARK  100  A    between atoms: _241  and  _242
REMARK  101  A    between atoms: _244  and  _246
REMARK  102  A    between atoms: _246  and  _247
REMARK  103  A    between atoms: _246  and  _249
REMARK  104  A    between atoms: _249  and  _250
REMARK  105  A    between atoms: _251  and  _253
REMARK  106  A    between atoms: _253  and  _254
REMARK  107  A    between atoms: _257  and  _259
REMARK  108  A    between atoms: _259  and  _260
REMARK  109  A    between atoms: _259  and  _262
REMARK  110  A    between atoms: _262  and  _263
REMARK  111  A    between atoms: _273  and  _275
REMARK  112  A    between atoms: _275  and  _276
REMARK  113  A    between atoms: _275  and  _278
REMARK  114  A    between atoms: _278  and  _279
REMARK  115  A    between atoms: _279  and  _280
REMARK  116  A    between atoms: _280  and  _281
REMARK  117  A    between atoms: _291  and  _292
REMARK  118  A    between atoms: _297  and  _299
REMARK  119  A    between atoms: _299  and  _300
REMARK  120  A    between atoms: _302  and  _304
REMARK  121  A    between atoms: _304  and  _305
REMARK  122  A    between atoms: _304  and  _307
REMARK  123  A    between atoms: _310  and  _312
REMARK  124  A    between atoms: _312  and  _313
REMARK  125  A    between atoms: _312  and  _315
REMARK  126  A    between atoms: _315  and  _316
REMARK  127  A    between atoms: _321  and  _322
REMARK                            x       y       z     vdW  Elec       q    Type
REMARK                         _______ _______ _______ _____ _____    ______ ____
ROOT
ATOM      1  CA  SER A   1      57.575  39.011  32.850  0.00  0.00    +0.163 C 
ENDROOT
BRANCH   1   2
ATOM      2  N   SER A   1      58.828  38.376  33.264  0.00  0.00    -0.237 NA
ATOM      3  H   SER A   1      59.721  38.884  33.103  0.00  0.00    +0.142 HD
ENDBRANCH   1   2
BRANCH   1   4
ATOM      4  C   SER A   1      57.108  38.438  31.513  0.00  0.00    +0.227 C 
ATOM      5  O   SER A   1      55.926  38.510  31.175  0.00  0.00    -0.287 OA
ENDBRANCH   1   4
BRANCH   1   6
ATOM      6  CB  SER A   1      57.757  40.524  32.711  0.00  0.00    +0.162 C 
BRANCH   6   7
ATOM      7  OG  SER A   1      58.014  41.126  33.964  0.00  0.00    -0.380 OA
ATOM      8  H   SER A   1      57.253  40.954  34.574  0.00  0.00    +0.211 HD
ENDBRANCH   6   7
ENDBRANCH   1   6
TORSDOF 4
REMARK  Name = ../refined-set-2016/1h4w/1h4w_pocket.pdb
REMARK  127 active torsions:
REMARK  status: ('A' for Active; 'I' for Inactive)
REMARK    1  A    between atoms: _1  and  _5
REMARK    2  A    between atoms: _5  and  _6
REMARK    3  A    between atoms: _5  and  _8
REMARK    4  A    between atoms: _8  and  _9
REMARK    5  A    between atoms: _12  and  _14
REMARK    6  A    between atoms: _14  and  _15
REMARK    7  A    between atoms: _14  and  _17
REMARK    8  A    between atoms: _20  and  _22
REMARK    9  A    between atoms: _22  and  _23
REMARK   10  A    between atoms: _22  and  _25
REMARK   11  A    between atoms: _25  and  _26
REMARK   12  A    between atoms: _31  and  _33
REMARK   13  A    between atoms: _33  and  _34
REMARK   14  A    between atoms: _33  and  _36
REMARK   15  A    between atoms: _36  and  _37
REMARK   16  A    between atoms: _40  and  _42
REMARK   17  A    between atoms: _42  and  _43
REMARK   18  A    between atoms: _42  and  _45
REMARK   19  A    between atoms: _45  and  _46
REMARK   20  A    between atoms: _49  and  _51
REMARK   21  A    between atoms: _51  and  _52
REMARK   22  A    between atoms: _51  and  _54
REMARK   23  A    between atoms: _54  and  _55
REMARK   24  A    between atoms: _60  and  _62
REMARK   25  A    between atoms: _62  and  _63
REMARK   26  A    between atoms: _62  and  _65
REMARK   27  A    between atoms: _65  and  _66
REMARK   28  A    between atoms: _68  and  _70
REMARK   29  A    between atoms: _70  and  _71
REMARK   30  A    between atoms: _70  and  _73
REMARK   31  A    between atoms: _73  and  _74
REMARK   32  A    between atoms: _79  and  _80
REMARK   33  A    between atoms: _82  and  _84
REMARK   34  A    between atoms: _84  and  _85
REMARK   35  A    between atoms: _84  and  _87
REMARK   36  A    between atoms: _90  and  _92
REMARK   37  A    between atoms: _92  and  _93
REMARK   38  A    between atoms: _92  and  _95
REMARK   39  A    between atoms: _95  and  _96
REMARK   40  A    between atoms: _96  and  _97
REMARK   41  A    between atoms: _97  and  _98
REMARK   42  A    between atoms: _98  and  _99
REMARK   43  A    between atoms: _103  and  _105
REMARK   44  A    between atoms: _105  and  _106
REMARK   45  A    between atoms: _105  and  _108
REMARK   46  A    between atoms: _108  and  _109
REMARK   47  A    between atoms: _112  and  _114
REMARK   48  A    between atoms: _114  and  _115
REMARK   49  A    between atoms: _114  and  _117
REMARK   50  A    between atoms: _117  and  _118
REMARK   51  A    between atoms: _120  and  _122
REMARK   52  A    between atoms: _122  and  _123
REMARK   53  A    between atoms: _122  and  _125
REMARK   54  A    between atoms: _125  and  _126
REMARK   55  A    between atoms: _126  and  _250
REMARK   56  A    between atoms: _127  and  _129
REMARK   57  A    between atoms: _129  and  _130
REMARK   58  A    between atoms: _129  and  _132
REMARK   59  A    between atoms: _132  and  _133
REMARK   60  A    between atoms: _133  and  _134
REMARK   61  A    between atoms: _139  and  _141
REMARK   62  A    between atoms: _141  and  _142
REMARK   63  A    between atoms: _141  and  _144
REMARK   64  A    between atoms: _144  and  _145
REMARK   65  A    between atoms: _145  and  _146
REMARK   66  A    between atoms: _146  and  _147
REMARK   67  A    between atoms: _156  and  _158
REMARK   68  A    between atoms: _158  and  _159
REMARK   69  A    between atoms: _158  and  _161
REMARK   70  A    between atoms: _161  and  _162
REMARK   71  A    between atoms: _165  and  _167
REMARK   72  A    between atoms: _167  and  _168
REMARK   73  A    between atoms: _167  and  _170
REMARK   74  A    between atoms: _170  and  _171
REMARK   75  A    between atoms: _173  and  _175
REMARK   76  A    between atoms: _175  and  _176
REMARK   77  A    between atoms: _178  and  _180
REMARK   78  A    between atoms: _180  and  _181
REMARK   79  A    between atoms: _183  and  _185
REMARK   80  A    between atoms: _185  and  _186
REMARK   81  A    between atoms: _185  and  _188
REMARK   82  A    between atoms: _191  and  _193
REMARK   83  A    between atoms: _193  and  _194
REMARK   84  A    between atoms: _193  and  _196
REMARK   85  A    between atoms: _199  and  _201
REMARK   86  A    between atoms: _201  and  _202
REMARK   87  A    between atoms: _201  and  _204
REMARK   88  A    between atoms: _204  and  _205
REMARK   89  A    between atoms: _207  and  _209
REMARK   90  A    between atoms: _209  and  _210
REMARK   91  A    between atoms: _209  and  _212
REMARK   92  A    between atoms: _212  and  _213
REMARK   93  A    between atoms: _223  and  _225
REMARK   94  A    between atoms: _225  and  _226
REMARK   95  A    between atoms: _228  and  _230
REMARK   96  A    between atoms: _230  and  _231
REMARK   97  A    between atoms: _230  and  _233
REMARK   98  A    between atoms: _233  and  _234
REMARK   99  A    between atoms: _239  and  _241
REMARK  100  A    between atoms: _241  and  _242
REMARK  101  A    between atoms: _244  and  _246
REMARK  102  A    between atoms: _246  and  _247
REMARK  103  A    between atoms: _246  and  _249
REMARK  104  A    between atoms: _249  and  _250
REMARK  105  A    between atoms: _251  and  _253
REMARK  106  A    between atoms: _253  and  _254
REMARK  107  A    between atoms: _257  and  _259
REMARK  108  A    between atoms: _259  and  _260
REMARK  109  A    between atoms: _259  and  _262
REMARK  110  A    between atoms: _262  and  _263
REMARK  111  A    between atoms: _273  and  _275
REMARK  112  A    between atoms: _275  and  _276
REMARK  113  A    between atoms: _275  and  _278
REMARK  114  A    between atoms: _278  and  _279
REMARK  115  A    between atoms: _279  and  _280
REMARK  116  A    between atoms: _280  and  _281
REMARK  117  A    between atoms: _291  and  _292
REMARK  118  A    between atoms: _297  and  _299
REMARK  119  A    between atoms: _299  and  _300
REMARK  120  A    between atoms: _302  and  _304
REMARK  121  A    between atoms: _304  and  _305
REMARK  122  A    between atoms: _304  and  _307
REMARK  123  A    between atoms: _310  and  _312
REMARK  124  A    between atoms: _312  and  _313
REMARK  125  A    between atoms: _312  and  _315
REMARK  126  A    between atoms: _315  and  _316
REMARK  127  A    between atoms: _321  and  _322
REMARK                            x       y       z     vdW  Elec       q    Type
REMARK                         _______ _______ _______ _____ _____    ______ ____
ROOT
ATOM      1  CG  TYR A   1      43.174  44.257  38.199  0.00  0.00    -0.020 A 
ATOM      2  CD2 TYR A   1      44.069  44.425  39.253  0.00  0.00    -0.001 A 
ATOM      3  CE2 TYR A   1      45.388  43.982  39.159  0.00  0.00    +0.036 A 
ATOM      4  CZ  TYR A   1      45.820  43.360  37.999  0.00  0.00    +0.134 A 
ATOM      5  CE1 TYR A   1      44.949  43.183  36.934  0.00  0.00    +0.036 A 
ATOM      6  CD1 TYR A   1      43.632  43.634  37.039  0.00  0.00    -0.001 A 
ENDROOT
BRANCH   4   7
ATOM      7  OH  TYR A   1      47.115  42.902  37.913  0.00  0.00    -0.506 OA
ATOM      8  HH  TYR A   1      47.274  42.230  38.622  0.00  0.00    +0.292 HD
ENDBRANCH   4   7
BRANCH   1   9
ATOM      9  CB  TYR A   1      41.738  44.726  38.316  0.00  0.00    +0.051 C 
BRANCH   9  10
ATOM     10  CA  TYR A   1      41.435  45.996  37.520  0.00  0.00    +0.137 C 
BRANCH  10  11
ATOM     11  N   TYR A   1      42.269  47.088  38.007  0.00  0.00    -0.239 NA
ATOM     12  H   TYR A   1      42.054  47.518  38.929  0.00  0.00    +0.142 HD
ENDBRANCH  10  11
BRANCH  10  13
ATOM     13  C   TYR A   1      39.956  46.348  37.649  0.00  0.00    +0.224 C 
ATOM     14  O   TYR A   1      39.230  45.762  38.452  0.00  0.00    -0.287 OA
ENDBRANCH  10  13
ENDBRANCH   9  10
ENDBRANCH   1   9
TORSDOF 5
REMARK  Name = ../refined-set-2016/1h4w/1h4w_pocket.pdb
REMARK  127 active torsions:
REMARK  status: ('A' for Active; 'I' for Inactive)
REMARK    1  A    between atoms: _1  and  _5
REMARK    2  A    between atoms: _5  and  _6
REMARK    3  A    between atoms: _5  and  _8
REMARK    4  A    between atoms: _8  and  _9
REMARK    5  A    between atoms: _12  and  _14
REMARK    6  A    between atoms: _14  and  _15
REMARK    7  A    between atoms: _14  and  _17
REMARK    8  A    between atoms: _20  and  _22
REMARK    9  A    between atoms: _22  and  _23
REMARK   10  A    between atoms: _22  and  _25
REMARK   11  A    between atoms: _25  and  _26
REMARK   12  A    between atoms: _31  and  _33
REMARK   13  A    between atoms: _33  and  _34
REMARK   14  A    between atoms: _33  and  _36
REMARK   15  A    between atoms: _36  and  _37
REMARK   16  A    between atoms: _40  and  _42
REMARK   17  A    between atoms: _42  and  _43
REMARK   18  A    between atoms: _42  and  _45
REMARK   19  A    between atoms: _45  and  _46
REMARK   20  A    between atoms: _49  and  _51
REMARK   21  A    between atoms: _51  and  _52
REMARK   22  A    between atoms: _51  and  _54
REMARK   23  A    between atoms: _54  and  _55
REMARK   24  A    between atoms: _60  and  _62
REMARK   25  A    between atoms: _62  and  _63
REMARK   26  A    between atoms: _62  and  _65
REMARK   27  A    between atoms: _65  and  _66
REMARK   28  A    between atoms: _68  and  _70
REMARK   29  A    between atoms: _70  and  _71
REMARK   30  A    between atoms: _70  and  _73
REMARK   31  A    between atoms: _73  and  _74
REMARK   32  A    between atoms: _79  and  _80
REMARK   33  A    between atoms: _82  and  _84
REMARK   34  A    between atoms: _84  and  _85
REMARK   35  A    between atoms: _84  and  _87
REMARK   36  A    between atoms: _90  and  _92
REMARK   37  A    between atoms: _92  and  _93
REMARK   38  A    between atoms: _92  and  _95
REMARK   39  A    between atoms: _95  and  _96
REMARK   40  A    between atoms: _96  and  _97
REMARK   41  A    between atoms: _97  and  _98
REMARK   42  A    between atoms: _98  and  _99
REMARK   43  A    between atoms: _103  and  _105
REMARK   44  A    between atoms: _105  and  _106
REMARK   45  A    between atoms: _105  and  _108
REMARK   46  A    between atoms: _108  and  _109
REMARK   47  A    between atoms: _112  and  _114
REMARK   48  A    between atoms: _114  and  _115
REMARK   49  A    between atoms: _114  and  _117
REMARK   50  A    between atoms: _117  and  _118
REMARK   51  A    between atoms: _120  and  _122
REMARK   52  A    between atoms: _122  and  _123
REMARK   53  A    between atoms: _122  and  _125
REMARK   54  A    between atoms: _125  and  _126
REMARK   55  A    between atoms: _126  and  _250
REMARK   56  A    between atoms: _127  and  _129
REMARK   57  A    between atoms: _129  and  _130
REMARK   58  A    between atoms: _129  and  _132
REMARK   59  A    between atoms: _132  and  _133
REMARK   60  A    between atoms: _133  and  _134
REMARK   61  A    between atoms: _139  and  _141
REMARK   62  A    between atoms: _141  and  _142
REMARK   63  A    between atoms: _141  and  _144
REMARK   64  A    between atoms: _144  and  _145
REMARK   65  A    between atoms: _145  and  _146
REMARK   66  A    between atoms: _146  and  _147
REMARK   67  A    between atoms: _156  and  _158
REMARK   68  A    between atoms: _158  and  _159
REMARK   69  A    between atoms: _158  and  _161
REMARK   70  A    between atoms: _161  and  _162
REMARK   71  A    between atoms: _165  and  _167
REMARK   72  A    between atoms: _167  and  _168
REMARK   73  A    between atoms: _167  and  _170
REMARK   74  A    between atoms: _170  and  _171
REMARK   75  A    between atoms: _173  and  _175
REMARK   76  A    between atoms: _175  and  _176
REMARK   77  A    between atoms: _178  and  _180
REMARK   78  A    between atoms: _180  and  _181
REMARK   79  A    between atoms: _183  and  _185
REMARK   80  A    between atoms: _185  and  _186
REMARK   81  A    between atoms: _185  and  _188
REMARK   82  A    between atoms: _191  and  _193
REMARK   83  A    between atoms: _193  and  _194
REMARK   84  A    between atoms: _193  and  _196
REMARK   85  A    between atoms: _199  and  _201
REMARK   86  A    between atoms: _201  and  _202
REMARK   87  A    between atoms: _201  and  _204
REMARK   88  A    between atoms: _204  and  _205
REMARK   89  A    between atoms: _207  and  _209
REMARK   90  A    between atoms: _209  and  _210
REMARK   91  A    between atoms: _209  and  _212
REMARK   92  A    between atoms: _212  and  _213
REMARK   93  A    between atoms: _223  and  _225
REMARK   94  A    between atoms: _225  and  _226
REMARK   95  A    between atoms: _228  and  _230
REMARK   96  A    between atoms: _230  and  _231
REMARK   97  A    between atoms: _230  and  _233
REMARK   98  A    between atoms: _233  and  _234
REMARK   99  A    between atoms: _239  and  _241
REMARK  100  A    between atoms: _241  and  _242
REMARK  101  A    between atoms: _244  and  _246
REMARK  102  A    between atoms: _246  and  _247
REMARK  103  A    between atoms: _246  and  _249
REMARK  104  A    between atoms: _249  and  _250
REMARK  105  A    between atoms: _251  and  _253
REMARK  106  A    between atoms: _253  and  _254
REMARK  107  A    between atoms: _257  and  _259
REMARK  108  A    between atoms: _259  and  _260
REMARK  109  A    between atoms: _259  and  _262
REMARK  110  A    between atoms: _262  and  _263
REMARK  111  A    between atoms: _273  and  _275
REMARK  112  A    between atoms: _275  and  _276
REMARK  113  A    between atoms: _275  and  _278
REMARK  114  A    between atoms: _278  and  _279
REMARK  115  A    between atoms: _279  and  _280
REMARK  116  A    between atoms: _280  and  _281
REMARK  117  A    between atoms: _291  and  _292
REMARK  118  A    between atoms: _297  and  _299
REMARK  119  A    between atoms: _299  and  _300
REMARK  120  A    between atoms: _302  and  _304
REMARK  121  A    between atoms: _304  and  _305
REMARK  122  A    between atoms: _304  and  _307
REMARK  123  A    between atoms: _310  and  _312
REMARK  124  A    between atoms: _312  and  _313
REMARK  125  A    between atoms: _312  and  _315
REMARK  126  A    between atoms: _315  and  _316
REMARK  127  A    between atoms: _321  and  _322
REMARK                            x       y       z     vdW  Elec       q    Type
REMARK                         _______ _______ _______ _____ _____    ______ ____
ROOT
ATOM      1  CA  VAL A   1      50.277  44.393  46.843  0.00  0.00    +0.133 C 
ENDROOT
BRANCH   1   2
ATOM      2  CB  VAL A   1      50.697  43.214  47.749  0.00  0.00    +0.023 C 
ATOM      3  CG2 VAL A   1      49.668  43.009  48.849  0.00  0.00    +0.002 C 
ATOM      4  CG1 VAL A   1      52.071  43.479  48.348  0.00  0.00    +0.002 C 
ENDBRANCH   1   2
BRANCH   1   5
ATOM      5  N   VAL A   1      48.971  44.169  46.239  0.00  0.00    -0.239 NA
ATOM      6  H   VAL A   1      48.897  43.525  45.426  0.00  0.00    +0.142 HD
ENDBRANCH   1   5
BRANCH   1   7
ATOM      7  C   VAL A   1      51.259  44.486  45.683  0.00  0.00    +0.224 C 
ATOM      8  O   VAL A   1      51.159  43.717  44.727  0.00  0.00    -0.287 OA
ENDBRANCH   1   7
TORSDOF 3
REMARK  Name = ../refined-set-2016/1h4w/1h4w_pocket.pdb
REMARK  127 active torsions:
REMARK  status: ('A' for Active; 'I' for Inactive)
REMARK    1  A    between atoms: _1  and  _5
REMARK    2  A    between atoms: _5  and  _6
REMARK    3  A    between atoms: _5  and  _8
REMARK    4  A    between atoms: _8  and  _9
REMARK    5  A    between atoms: _12  and  _14
REMARK    6  A    between atoms: _14  and  _15
REMARK    7  A    between atoms: _14  and  _17
REMARK    8  A    between atoms: _20  and  _22
REMARK    9  A    between atoms: _22  and  _23
REMARK   10  A    between atoms: _22  and  _25
REMARK   11  A    between atoms: _25  and  _26
REMARK   12  A    between atoms: _31  and  _33
REMARK   13  A    between atoms: _33  and  _34
REMARK   14  A    between atoms: _33  and  _36
REMARK   15  A    between atoms: _36  and  _37
REMARK   16  A    between atoms: _40  and  _42
REMARK   17  A    between atoms: _42  and  _43
REMARK   18  A    between atoms: _42  and  _45
REMARK   19  A    between atoms: _45  and  _46
REMARK   20  A    between atoms: _49  and  _51
REMARK   21  A    between atoms: _51  and  _52
REMARK   22  A    between atoms: _51  and  _54
REMARK   23  A    between atoms: _54  and  _55
REMARK   24  A    between atoms: _60  and  _62
REMARK   25  A    between atoms: _62  and  _63
REMARK   26  A    between atoms: _62  and  _65
REMARK   27  A    between atoms: _65  and  _66
REMARK   28  A    between atoms: _68  and  _70
REMARK   29  A    between atoms: _70  and  _71
REMARK   30  A    between atoms: _70  and  _73
REMARK   31  A    between atoms: _73  and  _74
REMARK   32  A    between atoms: _79  and  _80
REMARK   33  A    between atoms: _82  and  _84
REMARK   34  A    between atoms: _84  and  _85
REMARK   35  A    between atoms: _84  and  _87
REMARK   36  A    between atoms: _90  and  _92
REMARK   37  A    between atoms: _92  and  _93
REMARK   38  A    between atoms: _92  and  _95
REMARK   39  A    between atoms: _95  and  _96
REMARK   40  A    between atoms: _96  and  _97
REMARK   41  A    between atoms: _97  and  _98
REMARK   42  A    between atoms: _98  and  _99
REMARK   43  A    between atoms: _103  and  _105
REMARK   44  A    between atoms: _105  and  _106
REMARK   45  A    between atoms: _105  and  _108
REMARK   46  A    between atoms: _108  and  _109
REMARK   47  A    between atoms: _112  and  _114
REMARK   48  A    between atoms: _114  and  _115
REMARK   49  A    between atoms: _114  and  _117
REMARK   50  A    between atoms: _117  and  _118
REMARK   51  A    between atoms: _120  and  _122
REMARK   52  A    between atoms: _122  and  _123
REMARK   53  A    between atoms: _122  and  _125
REMARK   54  A    between atoms: _125  and  _126
REMARK   55  A    between atoms: _126  and  _250
REMARK   56  A    between atoms: _127  and  _129
REMARK   57  A    between atoms: _129  and  _130
REMARK   58  A    between atoms: _129  and  _132
REMARK   59  A    between atoms: _132  and  _133
REMARK   60  A    between atoms: _133  and  _134
REMARK   61  A    between atoms: _139  and  _141
REMARK   62  A    between atoms: _141  and  _142
REMARK   63  A    between atoms: _141  and  _144
REMARK   64  A    between atoms: _144  and  _145
REMARK   65  A    between atoms: _145  and  _146
REMARK   66  A    between atoms: _146  and  _147
REMARK   67  A    between atoms: _156  and  _158
REMARK   68  A    between atoms: _158  and  _159
REMARK   69  A    between atoms: _158  and  _161
REMARK   70  A    between atoms: _161  and  _162
REMARK   71  A    between atoms: _165  and  _167
REMARK   72  A    between atoms: _167  and  _168
REMARK   73  A    between atoms: _167  and  _170
REMARK   74  A    between atoms: _170  and  _171
REMARK   75  A    between atoms: _173  and  _175
REMARK   76  A    between atoms: _175  and  _176
REMARK   77  A    between atoms: _178  and  _180
REMARK   78  A    between atoms: _180  and  _181
REMARK   79  A    between atoms: _183  and  _185
REMARK   80  A    between atoms: _185  and  _186
REMARK   81  A    between atoms: _185  and  _188
REMARK   82  A    between atoms: _191  and  _193
REMARK   83  A    between atoms: _193  and  _194
REMARK   84  A    between atoms: _193  and  _196
REMARK   85  A    between atoms: _199  and  _201
REMARK   86  A    between atoms: _201  and  _202
REMARK   87  A    between atoms: _201  and  _204
REMARK   88  A    between atoms: _204  and  _205
REMARK   89  A    between atoms: _207  and  _209
REMARK   90  A    between atoms: _209  and  _210
REMARK   91  A    between atoms: _209  and  _212
REMARK   92  A    between atoms: _212  and  _213
REMARK   93  A    between atoms: _223  and  _225
REMARK   94  A    between atoms: _225  and  _226
REMARK   95  A    between atoms: _228  and  _230
REMARK   96  A    between atoms: _230  and  _231
REMARK   97  A    between atoms: _230  and  _233
REMARK   98  A    between atoms: _233  and  _234
REMARK   99  A    between atoms: _239  and  _241
REMARK  100  A    between atoms: _241  and  _242
REMARK  101  A    between atoms: _244  and  _246
REMARK  102  A    between atoms: _246  and  _247
REMARK  103  A    between atoms: _246  and  _249
REMARK  104  A    between atoms: _249  and  _250
REMARK  105  A    between atoms: _251  and  _253
REMARK  106  A    between atoms: _253  and  _254
REMARK  107  A    between atoms: _257  and  _259
REMARK  108  A    between atoms: _259  and  _260
REMARK  109  A    between atoms: _259  and  _262
REMARK  110  A    between atoms: _262  and  _263
REMARK  111  A    between atoms: _273  and  _275
REMARK  112  A    between atoms: _275  and  _276
REMARK  113  A    between atoms: _275  and  _278
REMARK  114  A    between atoms: _278  and  _279
REMARK  115  A    between atoms: _279  and  _280
REMARK  116  A    between atoms: _280  and  _281
REMARK  117  A    between atoms: _291  and  _292
REMARK  118  A    between atoms: _297  and  _299
REMARK  119  A    between atoms: _299  and  _300
REMARK  120  A    between atoms: _302  and  _304
REMARK  121  A    between atoms: _304  and  _305
REMARK  122  A    between atoms: _304  and  _307
REMARK  123  A    between atoms: _310  and  _312
REMARK  124  A    between atoms: _312  and  _313
REMARK  125  A    between atoms: _312  and  _315
REMARK  126  A    between atoms: _315  and  _316
REMARK  127  A    between atoms: _321  and  _322
REMARK                            x       y       z     vdW  Elec       q    Type
REMARK                         _______ _______ _______ _____ _____    ______ ____
ROOT
ATOM      1  CB  TRP A   4      55.119  35.339  38.336  0.00  0.00    +0.098 C 
ENDROOT
BRANCH   1   2
ATOM      2  SG  TRP A   4      54.863  35.294  36.527  0.00  0.00    -0.080 S 
BRANCH   2   3
ATOM      3  SG  CYS A   8      53.472  36.730  36.193  0.00  0.00    -0.080 S 
BRANCH   3   4
ATOM      4  CB  CYS A   8      54.479  38.221  35.959  0.00  0.00    +0.098 C 
BRANCH   4   5
ATOM      5  CA  CYS A   8      53.676  39.511  35.846  0.00  0.00    +0.160 C 
BRANCH   5   6
ATOM      6  C   CYS A   8      54.634  40.686  35.817  0.00  0.00    +0.242 C 
ATOM      7  N   ALA A   9      54.528  41.548  36.822  0.00  0.00    -0.297 N 
ATOM      8  H   ALA A   9      53.809  41.380  37.554  0.00  0.00    +0.150 HD
ATOM      9  O   CYS A   8      55.452  40.806  34.905  0.00  0.00    -0.273 OA
BRANCH   7  10
ATOM     10  CA  ALA A   9      55.383  42.719  36.934  0.00  0.00    +0.149 C 
ATOM     11  CB  ALA A   9      56.849  42.290  37.020  0.00  0.00    +0.031 C 
BRANCH  10  12
ATOM     12  C   ALA A   9      55.181  43.711  35.785  0.00  0.00    +0.241 C 
ATOM     13  O   ALA A   9      56.092  44.461  35.436  0.00  0.00    -0.273 OA
ATOM     14  N   TRP A  10      53.987  43.704  35.196  0.00  0.00    -0.298 N 
ATOM     15  H   TRP A  10      53.266  43.026  35.514  0.00  0.00    +0.150 HD
BRANCH  14  16
ATOM     16  CA  TRP A  10      53.670  44.630  34.112  0.00  0.00    +0.141 C 
BRANCH  16  17
ATOM     17  C   TRP A  10      53.233  45.956  34.731  0.00  0.00    +0.227 C 
ATOM     18  O   TRP A  10      52.727  45.990  35.855  0.00  0.00    -0.286 OA
ENDBRANCH  16  17
BRANCH  16  19
ATOM     19  CB  TRP A  10      52.533  44.086  33.240  0.00  0.00    +0.056 C 
BRANCH  19  20
ATOM     20  CG  TRP A  10      52.892  42.887  32.400  0.00  0.00    -0.002 A 
ATOM     21  CD1 TRP A  10      54.068  42.188  32.416  0.00  0.00    +0.068 A 
ATOM     22  NE1 TRP A  10      54.006  41.134  31.533  0.00  0.00    -0.352 N 
ATOM     23  HE1 TRP A  10      54.767  40.448  31.356  0.00  0.00    +0.166 HD
ATOM     24  CE2 TRP A  10      52.778  41.136  30.925  0.00  0.00    +0.056 A 
ATOM     25  CZ2 TRP A  10      52.246  40.270  29.962  0.00  0.00    +0.017 A 
ATOM     26  CH2 TRP A  10      50.967  40.513  29.526  0.00  0.00    +0.001 A 
ATOM     27  CZ3 TRP A  10      50.214  41.592  30.024  0.00  0.00    +0.000 A 
ATOM     28  CE3 TRP A  10      50.745  42.454  30.983  0.00  0.00    +0.001 A 
ATOM     29  CD2 TRP A  10      52.048  42.228  31.446  0.00  0.00    +0.013 A 
ENDBRANCH  19  20
ENDBRANCH  16  19
ENDBRANCH  14  16
ENDBRANCH  10  12
ENDBRANCH   7  10
ENDBRANCH   5   6
BRANCH   5  30
ATOM     30  N   CYS A   8      52.864  39.516  34.636  0.00  0.00    -0.296 N 
ATOM     31  C   GLY A   7      51.589  39.144  34.640  0.00  0.00    +0.243 C 
ATOM     32  O   GLY A   7      51.007  38.741  35.650  0.00  0.00    -0.273 OA
ATOM     33  H   CYS A   8      53.297  39.821  33.741  0.00  0.00    +0.150 HD
BRANCH  31  34
ATOM     34  CA  GLY A   7      50.850  39.229  33.317  0.00  0.00    +0.176 C 
BRANCH  34  35
ATOM     35  N   GLY A   7      49.432  39.257  33.615  0.00  0.00    -0.295 N 
ATOM     36  C   HIS A   6      48.880  40.329  34.174  0.00  0.00    +0.241 C 
ATOM     37  O   HIS A   6      49.513  41.352  34.436  0.00  0.00    -0.273 OA
ATOM     38  H   GLY A   7      48.841  38.431  33.390  0.00  0.00    +0.150 HD
BRANCH  36  39
ATOM     39  CA  HIS A   6      47.393  40.236  34.492  0.00  0.00    +0.155 C 
BRANCH  39  40
ATOM     40  N   HIS A   6      47.289  40.268  35.949  0.00  0.00    -0.297 N 
ATOM     41  C   GLY A   5      47.183  39.146  36.654  0.00  0.00    +0.243 C 
ATOM     42  O   GLY A   5      47.101  38.036  36.134  0.00  0.00    -0.273 OA
ATOM     43  H   HIS A   6      47.298  41.183  36.443  0.00  0.00    +0.150 HD
BRANCH  41  44
ATOM     44  CA  GLY A   5      47.124  39.271  38.164  0.00  0.00    +0.176 C 
BRANCH  44  45
ATOM     45  N   GLY A   5      46.683  37.999  38.705  0.00  0.00    -0.295 N 
ATOM     46  C   TRP A   4      46.703  37.734  40.010  0.00  0.00    +0.241 C 
ATOM     47  O   TRP A   4      47.104  38.523  40.863  0.00  0.00    -0.273 OA
ATOM     48  H   GLY A   5      46.339  37.268  38.050  0.00  0.00    +0.150 HD
BRANCH  46  49
ATOM     49  CA  TRP A   4      46.182  36.355  40.386  0.00  0.00    +0.153 C 
BRANCH  49  50
ATOM     50  N   TRP A   4      46.093  36.098  41.818  0.00  0.00    -0.297 N 
ATOM     51  H   TRP A   4      46.038  36.891  42.489  0.00  0.00    +0.150 HD
ATOM     52  C   SER A   3      46.083  34.846  42.262  0.00  0.00    +0.243 C 
ATOM     53  O   SER A   3      46.171  33.877  41.505  0.00  0.00    -0.273 OA
BRANCH  52  54
ATOM     54  CA  SER A   3      45.960  34.640  43.772  0.00  0.00    +0.178 C 
BRANCH  54  55
ATOM     55  N   SER A   3      47.113  35.067  44.558  0.00  0.00    -0.295 N 
ATOM     56  C   VAL A   2      47.825  34.182  45.251  0.00  0.00    +0.241 C 
ATOM     57  O   VAL A   2      47.588  32.973  45.226  0.00  0.00    -0.273 OA
ATOM     58  H   SER A   3      47.381  36.072  44.577  0.00  0.00    +0.150 HD
BRANCH  56  59
ATOM     59  CA  VAL A   2      48.981  34.731  46.089  0.00  0.00    +0.148 C 
BRANCH  59  60
ATOM     60  N   VAL A   2      48.751  34.371  47.490  0.00  0.00    -0.297 N 
ATOM     61  C   VAL A   1      47.648  34.763  48.123  0.00  0.00    +0.238 C 
ATOM     62  O   VAL A   1      46.787  35.458  47.583  0.00  0.00    -0.274 OA
ATOM     63  H   VAL A   2      49.459  33.802  47.997  0.00  0.00    +0.150 HD
BRANCH  61  64
ATOM     64  CA  VAL A   1      47.489  34.327  49.584  0.00  0.00    +0.145 C 
BRANCH  64  65
ATOM     65  CB  VAL A   1      46.350  33.285  49.684  0.00  0.00    +0.025 C 
ATOM     66  CG2 VAL A   1      46.193  32.832  51.136  0.00  0.00    +0.002 C 
ATOM     67  CG1 VAL A   1      46.643  32.088  48.782  0.00  0.00    +0.002 C 
ENDBRANCH  64  65
BRANCH  64  68
ATOM     68  N   VAL A   1      47.158  35.524  50.341  0.00  0.00    -0.238 NA
ATOM     69  H   VAL A   1      46.335  36.083  50.038  0.00  0.00    +0.142 HD
ENDBRANCH  64  68
ENDBRANCH  61  64
ENDBRANCH  59  60
BRANCH  59  70
ATOM     70  CB  VAL A   2      50.312  34.143  45.567  0.00  0.00    +0.027 C 
ATOM     71  CG2 VAL A   2      51.472  34.621  46.430  0.00  0.00    +0.002 C 
ATOM     72  CG1 VAL A   2      50.524  34.567  44.116  0.00  0.00    +0.002 C 
ENDBRANCH  59  70
ENDBRANCH  56  59
ENDBRANCH  54  55
BRANCH  54  73
ATOM     73  CB  SER A   3      44.702  35.344  44.292  0.00  0.00    +0.166 C 
BRANCH  73  74
ATOM     74  OG  SER A   3      43.529  34.853  43.660  0.00  0.00    -0.380 OA
ATOM     75  H   SER A   3      43.441  33.883  43.838  0.00  0.00    +0.211 HD
ENDBRANCH  73  74
ENDBRANCH  54  73
ENDBRANCH  52  54
ENDBRANCH  49  50
BRANCH  49  76
ATOM     76  CB  TRP A   4      44.810  36.155  39.732  0.00  0.00    +0.057 C 
BRANCH  76  77
ATOM     77  CG  TRP A   4      43.748  37.109  40.219  0.00  0.00    -0.002 A 
ATOM     78  CD1 TRP A   4      43.006  36.996  41.359  0.00  0.00    +0.068 A 
ATOM     79  NE1 TRP A   4      42.136  38.057  41.466  0.00  0.00    -0.352 N 
ATOM     80  HE1 TRP A   4      41.459  38.207  42.241  0.00  0.00    +0.166 HD
ATOM     81  CE2 TRP A   4      42.305  38.883  40.387  0.00  0.00    +0.056 A 
ATOM     82  CZ2 TRP A   4      41.655  40.079  40.054  0.00  0.00    +0.017 A 
ATOM     83  CH2 TRP A   4      42.033  40.706  38.892  0.00  0.00    +0.001 A 
ATOM     84  CZ3 TRP A   4      43.037  40.169  38.061  0.00  0.00    +0.000 A 
ATOM     85  CE3 TRP A   4      43.683  38.978  38.393  0.00  0.00    +0.001 A 
ATOM     86  CD2 TRP A   4      43.314  38.318  39.577  0.00  0.00    +0.013 A 
ENDBRANCH  76  77
ENDBRANCH  49  76
ENDBRANCH  46  49
ENDBRANCH  44  45
ENDBRANCH  41  44
ENDBRANCH  39  40
BRANCH  39  87
ATOM     87  CB  HIS A   6      46.644  41.411  33.858  0.00  0.00    +0.076 C 
BRANCH  87  88
ATOM     88  CG  HIS A   6      45.153  41.291  33.935  0.00  0.00    +0.082 A 
ATOM     89  ND1 HIS A   6      44.512  40.089  34.148  0.00  0.00    -0.227 NA
ATOM     90  CE1 HIS A   6      43.205  40.278  34.121  0.00  0.00    +0.199 A 
ATOM     91  NE2 HIS A   6      42.974  41.560  33.898  0.00  0.00    -0.221 NA
ATOM     92  CD2 HIS A   6      44.175  42.216  33.780  0.00  0.00    +0.115 A 
ENDBRANCH  87  88
ENDBRANCH  39  87
ENDBRANCH  36  39
ENDBRANCH  34  35
ENDBRANCH  31  34
ENDBRANCH   5  30
ENDBRANCH   4   5
ENDBRANCH   3   4
ENDBRANCH   2   3
ENDBRANCH   1   2
BRANCH   1  93
ATOM     93  CA  TRP A   4      53.887  35.191  39.242  0.00  0.00    +0.160 C 
BRANCH  93  94
ATOM     94  C   TRP A   4      53.398  33.741  39.269  0.00  0.00    +0.242 C 
ATOM     95  O   TRP A   4      53.180  33.170  40.338  0.00  0.00    -0.273 OA
ATOM     96  N   GLY A   5      53.226  33.157  38.087  0.00  0.00    -0.297 N 
ATOM     97  H   GLY A   5      53.416  33.705  37.224  0.00  0.00    +0.150 HD
BRANCH  96  98
ATOM     98  CA  GLY A   5      52.779  31.771  37.960  0.00  0.00    +0.149 C 
BRANCH  98  99
ATOM     99  C   GLY A   5      53.555  30.847  38.897  0.00  0.00    +0.241 C 
ATOM    100  N   HIS A   6      52.821  29.980  39.587  0.00  0.00    -0.297 N 
ATOM    101  H   HIS A   6      51.789  29.992  39.455  0.00  0.00    +0.150 HD
ATOM    102  O   GLY A   5      54.782  30.923  38.989  0.00  0.00    -0.273 OA
BRANCH 100 103
ATOM    103  CA  HIS A   6      53.390  29.011  40.522  0.00  0.00    +0.149 C 
BRANCH 103 104
ATOM    104  C   HIS A   6      53.829  29.576  41.871  0.00  0.00    +0.241 C 
ATOM    105  O   HIS A   6      54.360  28.855  42.704  0.00  0.00    -0.273 OA
ATOM    106  N   GLY A   7      53.619  30.875  42.070  0.00  0.00    -0.297 N 
ATOM    107  H   GLY A   7      53.270  31.463  41.287  0.00  0.00    +0.150 HD
BRANCH 106 108
ATOM    108  CA  GLY A   7      53.871  31.487  43.372  0.00  0.00    +0.160 C 
BRANCH 108 109
ATOM    109  C   GLY A   7      52.487  31.361  44.011  0.00  0.00    +0.241 C 
ATOM    110  O   GLY A   7      52.323  31.485  45.222  0.00  0.00    -0.273 OA
ATOM    111  N   CYS A   8      51.496  31.136  43.149  0.00  0.00    -0.295 N 
ATOM    112  H   CYS A   8      51.736  31.065  42.140  0.00  0.00    +0.150 HD
BRANCH 111 113
ATOM    113  CA  CYS A   8      50.094  30.983  43.531  0.00  0.00    +0.178 C 
BRANCH 113 114
ATOM    114  C   CYS A   8      49.915  30.135  44.784  0.00  0.00    +0.243 C 
ATOM    115  N   ALA A   9      49.045  30.599  45.677  0.00  0.00    -0.295 N 
ATOM    116  H   ALA A   9      48.552  31.495  45.488  0.00  0.00    +0.150 HD
ATOM    117  O   CYS A   8      50.550  29.086  44.927  0.00  0.00    -0.273 OA
BRANCH 115 118
ATOM    118  CA  ALA A   9      48.768  29.884  46.910  0.00  0.00    +0.176 C 
BRANCH 118 119
ATOM    119  C   ALA A   9      49.746  30.217  48.018  0.00  0.00    +0.243 C 
ATOM    120  O   ALA A   9      49.510  29.888  49.183  0.00  0.00    -0.273 OA
ATOM    121  N   TRP A  10      50.837  30.881  47.640  0.00  0.00    -0.296 N 
ATOM    122  H   TRP A  10      50.947  31.138  46.638  0.00  0.00    +0.150 HD
BRANCH 121 123
ATOM    123  CA  TRP A  10      51.878  31.258  48.579  0.00  0.00    +0.163 C 
BRANCH 123 124
ATOM    124  C   TRP A  10      51.505  32.363  49.545  0.00  0.00    +0.229 C 
ATOM    125  O   TRP A  10      50.462  33.003  49.413  0.00  0.00    -0.286 OA
ENDBRANCH 123 124
ENDBRANCH 121 123
ENDBRANCH 118 119
ENDBRANCH 115 118
ENDBRANCH 113 114
BRANCH 113 126
ATOM    126  CB  CYS A   8      49.308  30.331  42.385  0.00  0.00    +0.166 C 
BRANCH 126 127
ATOM    127  O   CYS A   8      49.398  31.091  41.193  0.00  0.00    -0.380 OA
ATOM    128  H   CYS A   8      48.881  30.643  40.477  0.00  0.00    +0.211 HD
ENDBRANCH 126 127
ENDBRANCH 113 126
ENDBRANCH 111 113
ENDBRANCH 108 109
BRANCH 108 129
ATOM    129  CB  GLY A   7      54.208  32.976  43.265  0.00  0.00    +0.143 C 
BRANCH 129 130
ATOM    130  CG  GLY A   7      55.657  33.229  42.914  0.00  0.00    +0.367 C 
ATOM    131  OD2 GLY A   7      56.533  32.484  43.406  0.00  0.00    -0.246 OA
ATOM    132  OD1 GLY A   7      55.917  34.193  42.164  0.00  0.00    -0.246 OA
ENDBRANCH 129 130
ENDBRANCH 108 129
ENDBRANCH 106 108
ENDBRANCH 103 104
BRANCH 103 133
ATOM    133  CB  HIS A   6      54.507  28.201  39.860  0.00  0.00    +0.033 C 
BRANCH 133 134
ATOM    134  CG  HIS A   6      53.985  27.439  38.651  0.00  0.00    +0.045 C 
BRANCH 134 135
ATOM    135  CD  HIS A   6      54.994  26.474  38.073  0.00  0.00    +0.174 C 
BRANCH 135 136
ATOM    136  NE  HIS A   6      54.570  26.031  36.748  0.00  0.00    -0.265 N 
ATOM    137  HE  HIS A   6      53.634  26.334  36.410  0.00  0.00    +0.259 HD
ATOM    138  CZ  HIS A   6      55.301  25.266  35.946  0.00  0.00    +0.342 C 
ATOM    139  NH2 HIS A   6      56.499  24.848  36.332  0.00  0.00    -0.292 N 
ATOM    140 HH21 HIS A   6      56.869  25.119  37.265  0.00  0.00    +0.255 HD
ATOM    141 HH22 HIS A   6      57.069  24.249  35.701  0.00  0.00    +0.255 HD
ATOM    142  NH1 HIS A   6      54.841  24.937  34.748  0.00  0.00    -0.292 N 
ATOM    143 HH11 HIS A   6      53.909  25.278  34.437  0.00  0.00    +0.255 HD
ATOM    144 HH12 HIS A   6      55.412  24.338  34.118  0.00  0.00    +0.255 HD
ENDBRANCH 135 136
ENDBRANCH 134 135
ENDBRANCH 133 134
ENDBRANCH 103 133
ENDBRANCH 100 103
ENDBRANCH  98  99
BRANCH  98 145
ATOM    145  CB  GLY A   5      52.966  31.282  36.517  0.00  0.00    +0.039 C 
BRANCH 145 146
ATOM    146  CG  GLY A   5      51.728  31.344  35.630  0.00  0.00    +0.087 C 
BRANCH 146 147
ATOM    147  CD  GLY A   5      51.214  32.752  35.411  0.00  0.00    +0.219 C 
ATOM    148  NE2 GLY A   5      49.925  32.950  35.652  0.00  0.00    -0.329 N 
ATOM    149 HE21 GLY A   5      49.331  32.164  35.985  0.00  0.00    +0.145 HD
ATOM    150 HE22 GLY A   5      49.508  33.892  35.508  0.00  0.00    +0.145 HD
ATOM    151  OE1 GLY A   5      51.962  33.647  35.016  0.00  0.00    -0.275 OA
ENDBRANCH 146 147
ENDBRANCH 145 146
ENDBRANCH  98 145
ENDBRANCH  96  98
ENDBRANCH  93  94
BRANCH  93 153
ATOM    152  C   SER A   3      54.276  36.983  40.805  0.00  0.00    +0.243 C 
ATOM    153  N   TRP A   4      54.244  35.676  40.573  0.00  0.00    -0.296 N 
ATOM    154  H   TRP A   4      54.471  35.003  41.333  0.00  0.00    +0.150 HD
ATOM    155  O   SER A   3      53.972  37.804  39.938  0.00  0.00    -0.273 OA
BRANCH 152 156
ATOM    156  CA  SER A   3      54.692  37.470  42.197  0.00  0.00    +0.178 C 
BRANCH 156 158
ATOM    157  C   VAL A   2      55.782  39.564  41.658  0.00  0.00    +0.241 C 
ATOM    158  N   SER A   3      54.682  38.925  42.046  0.00  0.00    -0.295 N 
ATOM    159  H   SER A   3      53.813  39.461  42.243  0.00  0.00    +0.150 HD
ATOM    160  O   VAL A   2      56.866  38.993  41.522  0.00  0.00    -0.273 OA
BRANCH 157 161
ATOM    161  CA  VAL A   2      55.663  41.073  41.419  0.00  0.00    +0.160 C 
BRANCH 161 164
ATOM    162  C   VAL A   1      57.157  42.972  41.187  0.00  0.00    +0.238 C 
ATOM    163  O   VAL A   1      56.236  43.769  41.358  0.00  0.00    -0.274 OA
ATOM    164  N   VAL A   2      56.994  41.652  41.244  0.00  0.00    -0.297 N 
ATOM    165  H   VAL A   2      57.821  41.027  41.163  0.00  0.00    +0.150 HD
BRANCH 162 166
ATOM    166  CA  VAL A   1      58.565  43.487  40.936  0.00  0.00    +0.145 C 
BRANCH 166 167
ATOM    167  N   VAL A   1      58.502  44.370  39.766  0.00  0.00    -0.238 NA
ATOM    168  H   VAL A   1      57.749  45.085  39.717  0.00  0.00    +0.142 HD
ENDBRANCH 166 167
BRANCH 166 169
ATOM    169  CB  VAL A   1      59.043  44.258  42.166  0.00  0.00    +0.026 C 
BRANCH 169 170
ATOM    170  CG  VAL A   1      60.463  44.774  42.088  0.00  0.00    -0.000 C 
BRANCH 170 171
ATOM    171  CD  VAL A   1      60.774  45.583  43.336  0.00  0.00    -0.024 C 
BRANCH 171 172
ATOM    172  CE  VAL A   1      62.162  46.185  43.303  0.00  0.00    -0.086 C 
BRANCH 172 173
ATOM    173  NZ  VAL A   1      62.368  47.067  44.488  0.00  0.00    +0.380 N 
ATOM    174  HZ1 VAL A   1      62.259  46.508  45.358  0.00  0.00    -0.089 HD
ATOM    175  HZ2 VAL A   1      61.664  47.832  44.476  0.00  0.00    -0.089 HD
ATOM    176  HZ3 VAL A   1      63.324  47.474  44.454  0.00  0.00    -0.089 HD
ENDBRANCH 172 173
ENDBRANCH 171 172
ENDBRANCH 170 171
ENDBRANCH 169 170
ENDBRANCH 166 169
ENDBRANCH 162 166
ENDBRANCH 161 164
BRANCH 161 177
ATOM    177  CB  VAL A   2      54.884  41.345  40.119  0.00  0.00    +0.143 C 
BRANCH 177 178
ATOM    178  CG  VAL A   2      53.394  41.079  40.225  0.00  0.00    +0.367 C 
ATOM    179  OD2 VAL A   2      52.873  40.844  41.337  0.00  0.00    -0.246 OA
ATOM    180  OD1 VAL A   2      52.735  41.123  39.159  0.00  0.00    -0.246 OA
ENDBRANCH 177 178
ENDBRANCH 161 177
ENDBRANCH 157 161
ENDBRANCH 156 158
BRANCH 156 181
ATOM    181  CB  SER A   3      53.692  37.009  43.270  0.00  0.00    +0.166 C 
BRANCH 181 182
ATOM    182  OG  SER A   3      52.391  37.516  43.032  0.00  0.00    -0.380 OA
ATOM    183  H   SER A   3      52.418  38.506  43.037  0.00  0.00    +0.211 HD
ENDBRANCH 181 182
ENDBRANCH 156 181
ENDBRANCH 152 156
ENDBRANCH  93 153
ENDBRANCH   1  93
TORSDOF 75
REMARK  Name = ../refined-set-2016/1h4w/1h4w_pocket.pdb
REMARK  127 active torsions:
REMARK  status: ('A' for Active; 'I' for Inactive)
REMARK    1  A    between atoms: _1  and  _5
REMARK    2  A    between atoms: _5  and  _6
REMARK    3  A    between atoms: _5  and  _8
REMARK    4  A    between atoms: _8  and  _9
REMARK    5  A    between atoms: _12  and  _14
REMARK    6  A    between atoms: _14  and  _15
REMARK    7  A    between atoms: _14  and  _17
REMARK    8  A    between atoms: _20  and  _22
REMARK    9  A    between atoms: _22  and  _23
REMARK   10  A    between atoms: _22  and  _25
REMARK   11  A    between atoms: _25  and  _26
REMARK   12  A    between atoms: _31  and  _33
REMARK   13  A    between atoms: _33  and  _34
REMARK   14  A    between atoms: _33  and  _36
REMARK   15  A    between atoms: _36  and  _37
REMARK   16  A    between atoms: _40  and  _42
REMARK   17  A    between atoms: _42  and  _43
REMARK   18  A    between atoms: _42  and  _45
REMARK   19  A    between atoms: _45  and  _46
REMARK   20  A    between atoms: _49  and  _51
REMARK   21  A    between atoms: _51  and  _52
REMARK   22  A    between atoms: _51  and  _54
REMARK   23  A    between atoms: _54  and  _55
REMARK   24  A    between atoms: _60  and  _62
REMARK   25  A    between atoms: _62  and  _63
REMARK   26  A    between atoms: _62  and  _65
REMARK   27  A    between atoms: _65  and  _66
REMARK   28  A    between atoms: _68  and  _70
REMARK   29  A    between atoms: _70  and  _71
REMARK   30  A    between atoms: _70  and  _73
REMARK   31  A    between atoms: _73  and  _74
REMARK   32  A    between atoms: _79  and  _80
REMARK   33  A    between atoms: _82  and  _84
REMARK   34  A    between atoms: _84  and  _85
REMARK   35  A    between atoms: _84  and  _87
REMARK   36  A    between atoms: _90  and  _92
REMARK   37  A    between atoms: _92  and  _93
REMARK   38  A    between atoms: _92  and  _95
REMARK   39  A    between atoms: _95  and  _96
REMARK   40  A    between atoms: _96  and  _97
REMARK   41  A    between atoms: _97  and  _98
REMARK   42  A    between atoms: _98  and  _99
REMARK   43  A    between atoms: _103  and  _105
REMARK   44  A    between atoms: _105  and  _106
REMARK   45  A    between atoms: _105  and  _108
REMARK   46  A    between atoms: _108  and  _109
REMARK   47  A    between atoms: _112  and  _114
REMARK   48  A    between atoms: _114  and  _115
REMARK   49  A    between atoms: _114  and  _117
REMARK   50  A    between atoms: _117  and  _118
REMARK   51  A    between atoms: _120  and  _122
REMARK   52  A    between atoms: _122  and  _123
REMARK   53  A    between atoms: _122  and  _125
REMARK   54  A    between atoms: _125  and  _126
REMARK   55  A    between atoms: _126  and  _250
REMARK   56  A    between atoms: _127  and  _129
REMARK   57  A    between atoms: _129  and  _130
REMARK   58  A    between atoms: _129  and  _132
REMARK   59  A    between atoms: _132  and  _133
REMARK   60  A    between atoms: _133  and  _134
REMARK   61  A    between atoms: _139  and  _141
REMARK   62  A    between atoms: _141  and  _142
REMARK   63  A    between atoms: _141  and  _144
REMARK   64  A    between atoms: _144  and  _145
REMARK   65  A    between atoms: _145  and  _146
REMARK   66  A    between atoms: _146  and  _147
REMARK   67  A    between atoms: _156  and  _158
REMARK   68  A    between atoms: _158  and  _159
REMARK   69  A    between atoms: _158  and  _161
REMARK   70  A    between atoms: _161  and  _162
REMARK   71  A    between atoms: _165  and  _167
REMARK   72  A    between atoms: _167  and  _168
REMARK   73  A    between atoms: _167  and  _170
REMARK   74  A    between atoms: _170  and  _171
REMARK   75  A    between atoms: _173  and  _175
REMARK   76  A    between atoms: _175  and  _176
REMARK   77  A    between atoms: _178  and  _180
REMARK   78  A    between atoms: _180  and  _181
REMARK   79  A    between atoms: _183  and  _185
REMARK   80  A    between atoms: _185  and  _186
REMARK   81  A    between atoms: _185  and  _188
REMARK   82  A    between atoms: _191  and  _193
REMARK   83  A    between atoms: _193  and  _194
REMARK   84  A    between atoms: _193  and  _196
REMARK   85  A    between atoms: _199  and  _201
REMARK   86  A    between atoms: _201  and  _202
REMARK   87  A    between atoms: _201  and  _204
REMARK   88  A    between atoms: _204  and  _205
REMARK   89  A    between atoms: _207  and  _209
REMARK   90  A    between atoms: _209  and  _210
REMARK   91  A    between atoms: _209  and  _212
REMARK   92  A    between atoms: _212  and  _213
REMARK   93  A    between atoms: _223  and  _225
REMARK   94  A    between atoms: _225  and  _226
REMARK   95  A    between atoms: _228  and  _230
REMARK   96  A    between atoms: _230  and  _231
REMARK   97  A    between atoms: _230  and  _233
REMARK   98  A    between atoms: _233  and  _234
REMARK   99  A    between atoms: _239  and  _241
REMARK  100  A    between atoms: _241  and  _242
REMARK  101  A    between atoms: _244  and  _246
REMARK  102  A    between atoms: _246  and  _247
REMARK  103  A    between atoms: _246  and  _249
REMARK  104  A    between atoms: _249  and  _250
REMARK  105  A    between atoms: _251  and  _253
REMARK  106  A    between atoms: _253  and  _254
REMARK  107  A    between atoms: _257  and  _259
REMARK  108  A    between atoms: _259  and  _260
REMARK  109  A    between atoms: _259  and  _262
REMARK  110  A    between atoms: _262  and  _263
REMARK  111  A    between atoms: _273  and  _275
REMARK  112  A    between atoms: _275  and  _276
REMARK  113  A    between atoms: _275  and  _278
REMARK  114  A    between atoms: _278  and  _279
REMARK  115  A    between atoms: _279  and  _280
REMARK  116  A    between atoms: _280  and  _281
REMARK  117  A    between atoms: _291  and  _292
REMARK  118  A    between atoms: _297  and  _299
REMARK  119  A    between atoms: _299  and  _300
REMARK  120  A    between atoms: _302  and  _304
REMARK  121  A    between atoms: _304  and  _305
REMARK  122  A    between atoms: _304  and  _307
REMARK  123  A    between atoms: _310  and  _312
REMARK  124  A    between atoms: _312  and  _313
REMARK  125  A    between atoms: _312  and  _315
REMARK  126  A    between atoms: _315  and  _316
REMARK  127  A    between atoms: _321  and  _322
REMARK                            x       y       z     vdW  Elec       q    Type
REMARK                         _______ _______ _______ _____ _____    ______ ____
ROOT
ATOM      1  C   PRO A   2      49.339  43.376  40.836  0.00  0.00    +0.241 C 
ATOM      2  N   GLY A   3      49.937  42.636  41.764  0.00  0.00    -0.295 N 
ATOM      3  H   GLY A   3      50.787  42.990  42.247  0.00  0.00    +0.150 HD
ATOM      4  O   PRO A   2      48.351  42.990  40.215  0.00  0.00    -0.273 OA
ENDROOT
BRANCH   1   7
ATOM      5  C   ARG A   1      49.647  44.874  38.123  0.00  0.00    +0.241 C 
ATOM      6  N   PRO A   2      49.388  45.352  39.351  0.00  0.00    -0.272 N 
ATOM      7  CA  PRO A   2      49.953  44.741  40.555  0.00  0.00    +0.152 C 
ATOM      8  CB  PRO A   2      49.625  45.768  41.637  0.00  0.00    +0.031 C 
ATOM      9  CG  PRO A   2      48.288  46.275  41.192  0.00  0.00    +0.024 C 
ATOM     10  CD  PRO A   2      48.501  46.479  39.702  0.00  0.00    +0.094 C 
ATOM     11  O   ARG A   1      50.377  43.897  37.946  0.00  0.00    -0.273 OA
BRANCH   5  12
ATOM     12  CA  ARG A   1      48.997  45.601  36.944  0.00  0.00    +0.145 C 
BRANCH  12  13
ATOM     13  N   ARG A   1      49.666  46.882  36.725  0.00  0.00    -0.238 NA
ATOM     14  H   ARG A   1      50.704  46.924  36.765  0.00  0.00    +0.142 HD
ENDBRANCH  12  13
BRANCH  12  15
ATOM     15  CB  ARG A   1      49.071  44.725  35.684  0.00  0.00    +0.030 C 
BRANCH  15  16
ATOM     16  CG  ARG A   1      48.362  45.308  34.457  0.00  0.00    +0.045 C 
BRANCH  16  17
ATOM     17  CD  ARG A   1      46.873  45.501  34.707  0.00  0.00    +0.174 C 
BRANCH  17  18
ATOM     18  NE  ARG A   1      46.205  46.235  33.631  0.00  0.00    -0.265 N 
ATOM     19  HE  ARG A   1      46.169  47.272  33.707  0.00  0.00    +0.259 HD
ATOM     20  CZ  ARG A   1      45.641  45.677  32.563  0.00  0.00    +0.342 C 
ATOM     21  NH2 ARG A   1      45.651  44.360  32.404  0.00  0.00    -0.292 N 
ATOM     22 HH21 ARG A   1      46.103  43.753  33.118  0.00  0.00    +0.255 HD
ATOM     23 HH22 ARG A   1      45.207  43.934  31.565  0.00  0.00    +0.255 HD
ATOM     24  NH1 ARG A   1      45.062  46.443  31.646  0.00  0.00    -0.292 N 
ATOM     25 HH11 ARG A   1      45.050  47.476  31.764  0.00  0.00    +0.255 HD
ATOM     26 HH12 ARG A   1      44.620  46.010  30.810  0.00  0.00    +0.255 HD
ENDBRANCH  17  18
ENDBRANCH  16  17
ENDBRANCH  15  16
ENDBRANCH  12  15
ENDBRANCH   5  12
ENDBRANCH   1   7
BRANCH   2  27
ATOM     27  CA  GLY A   3      49.399  41.333  42.100  0.00  0.00    +0.176 C 
BRANCH  27  28
ATOM     28  C   GLY A   3      48.142  41.453  42.947  0.00  0.00    +0.243 C 
ATOM     29  O   GLY A   3      48.006  42.386  43.733  0.00  0.00    -0.273 OA
ATOM     30  N   VAL A   4      47.221  40.511  42.778  0.00  0.00    -0.297 N 
ATOM     31  H   VAL A   4      47.390  39.760  42.078  0.00  0.00    +0.150 HD
BRANCH  30  32
ATOM     32  CA  VAL A   4      45.979  40.497  43.544  0.00  0.00    +0.149 C 
BRANCH  32  33
ATOM     33  C   VAL A   4      46.074  39.310  44.496  0.00  0.00    +0.241 C 
ATOM     34  N   TYR A   5      45.725  39.551  45.752  0.00  0.00    -0.298 N 
ATOM     35  H   TYR A   5      45.369  40.495  46.003  0.00  0.00    +0.150 HD
ATOM     36  O   VAL A   4      46.466  38.206  44.100  0.00  0.00    -0.273 OA
BRANCH  34  37
ATOM     37  CA  TYR A   5      45.824  38.537  46.792  0.00  0.00    +0.141 C 
BRANCH  37  38
ATOM     38  C   TYR A   5      44.533  38.338  47.573  0.00  0.00    +0.227 C 
ATOM     39  O   TYR A   5      43.724  39.255  47.696  0.00  0.00    -0.286 OA
ENDBRANCH  37  38
BRANCH  37  40
ATOM     40  CB  TYR A   5      46.945  38.929  47.762  0.00  0.00    +0.054 C 
BRANCH  40  41
ATOM     41  CG  TYR A   5      48.286  39.106  47.079  0.00  0.00    -0.020 A 
ATOM     42  CD2 TYR A   5      49.210  38.065  47.051  0.00  0.00    -0.001 A 
ATOM     43  CE2 TYR A   5      50.414  38.186  46.360  0.00  0.00    +0.036 A 
ATOM     44  CZ  TYR A   5      50.706  39.362  45.689  0.00  0.00    +0.134 A 
ATOM     45  CE1 TYR A   5      49.810  40.420  45.703  0.00  0.00    +0.036 A 
ATOM     46  CD1 TYR A   5      48.601  40.288  46.398  0.00  0.00    -0.001 A 
BRANCH  44  47
ATOM     47  OH  TYR A   5      51.888  39.467  44.992  0.00  0.00    -0.506 OA
ATOM     48  HH  TYR A   5      51.944  40.362  44.573  0.00  0.00    +0.292 HD
ENDBRANCH  44  47
ENDBRANCH  40  41
ENDBRANCH  37  40
ENDBRANCH  34  37
ENDBRANCH  32  33
BRANCH  32  49
ATOM     49  CB  VAL A   4      44.755  40.350  42.619  0.00  0.00    +0.027 C 
ATOM     50  CG2 VAL A   4      43.470  40.404  43.442  0.00  0.00    +0.002 C 
ATOM     51  CG1 VAL A   4      44.768  41.463  41.577  0.00  0.00    +0.002 C 
ENDBRANCH  32  49
ENDBRANCH  30  32
ENDBRANCH  27  28
ENDBRANCH   2  27
TORSDOF 17
REMARK  Name = ../refined-set-2016/1h4w/1h4w_pocket.pdb
REMARK  127 active torsions:
REMARK  status: ('A' for Active; 'I' for Inactive)
REMARK    1  A    between atoms: _1  and  _5
REMARK    2  A    between atoms: _5  and  _6
REMARK    3  A    between atoms: _5  and  _8
REMARK    4  A    between atoms: _8  and  _9
REMARK    5  A    between atoms: _12  and  _14
REMARK    6  A    between atoms: _14  and  _15
REMARK    7  A    between atoms: _14  and  _17
REMARK    8  A    between atoms: _20  and  _22
REMARK    9  A    between atoms: _22  and  _23
REMARK   10  A    between atoms: _22  and  _25
REMARK   11  A    between atoms: _25  and  _26
REMARK   12  A    between atoms: _31  and  _33
REMARK   13  A    between atoms: _33  and  _34
REMARK   14  A    between atoms: _33  and  _36
REMARK   15  A    between atoms: _36  and  _37
REMARK   16  A    between atoms: _40  and  _42
REMARK   17  A    between atoms: _42  and  _43
REMARK   18  A    between atoms: _42  and  _45
REMARK   19  A    between atoms: _45  and  _46
REMARK   20  A    between atoms: _49  and  _51
REMARK   21  A    between atoms: _51  and  _52
REMARK   22  A    between atoms: _51  and  _54
REMARK   23  A    between atoms: _54  and  _55
REMARK   24  A    between atoms: _60  and  _62
REMARK   25  A    between atoms: _62  and  _63
REMARK   26  A    between atoms: _62  and  _65
REMARK   27  A    between atoms: _65  and  _66
REMARK   28  A    between atoms: _68  and  _70
REMARK   29  A    between atoms: _70  and  _71
REMARK   30  A    between atoms: _70  and  _73
REMARK   31  A    between atoms: _73  and  _74
REMARK   32  A    between atoms: _79  and  _80
REMARK   33  A    between atoms: _82  and  _84
REMARK   34  A    between atoms: _84  and  _85
REMARK   35  A    between atoms: _84  and  _87
REMARK   36  A    between atoms: _90  and  _92
REMARK   37  A    between atoms: _92  and  _93
REMARK   38  A    between atoms: _92  and  _95
REMARK   39  A    between atoms: _95  and  _96
REMARK   40  A    between atoms: _96  and  _97
REMARK   41  A    between atoms: _97  and  _98
REMARK   42  A    between atoms: _98  and  _99
REMARK   43  A    between atoms: _103  and  _105
REMARK   44  A    between atoms: _105  and  _106
REMARK   45  A    between atoms: _105  and  _108
REMARK   46  A    between atoms: _108  and  _109
REMARK   47  A    between atoms: _112  and  _114
REMARK   48  A    between atoms: _114  and  _115
REMARK   49  A    between atoms: _114  and  _117
REMARK   50  A    between atoms: _117  and  _118
REMARK   51  A    between atoms: _120  and  _122
REMARK   52  A    between atoms: _122  and  _123
REMARK   53  A    between atoms: _122  and  _125
REMARK   54  A    between atoms: _125  and  _126
REMARK   55  A    between atoms: _126  and  _250
REMARK   56  A    between atoms: _127  and  _129
REMARK   57  A    between atoms: _129  and  _130
REMARK   58  A    between atoms: _129  and  _132
REMARK   59  A    between atoms: _132  and  _133
REMARK   60  A    between atoms: _133  and  _134
REMARK   61  A    between atoms: _139  and  _141
REMARK   62  A    between atoms: _141  and  _142
REMARK   63  A    between atoms: _141  and  _144
REMARK   64  A    between atoms: _144  and  _145
REMARK   65  A    between atoms: _145  and  _146
REMARK   66  A    between atoms: _146  and  _147
REMARK   67  A    between atoms: _156  and  _158
REMARK   68  A    between atoms: _158  and  _159
REMARK   69  A    between atoms: _158  and  _161
REMARK   70  A    between atoms: _161  and  _162
REMARK   71  A    between atoms: _165  and  _167
REMARK   72  A    between atoms: _167  and  _168
REMARK   73  A    between atoms: _167  and  _170
REMARK   74  A    between atoms: _170  and  _171
REMARK   75  A    between atoms: _173  and  _175
REMARK   76  A    between atoms: _175  and  _176
REMARK   77  A    between atoms: _178  and  _180
REMARK   78  A    between atoms: _180  and  _181
REMARK   79  A    between atoms: _183  and  _185
REMARK   80  A    between atoms: _185  and  _186
REMARK   81  A    between atoms: _185  and  _188
REMARK   82  A    between atoms: _191  and  _193
REMARK   83  A    between atoms: _193  and  _194
REMARK   84  A    between atoms: _193  and  _196
REMARK   85  A    between atoms: _199  and  _201
REMARK   86  A    between atoms: _201  and  _202
REMARK   87  A    between atoms: _201  and  _204
REMARK   88  A    between atoms: _204  and  _205
REMARK   89  A    between atoms: _207  and  _209
REMARK   90  A    between atoms: _209  and  _210
REMARK   91  A    between atoms: _209  and  _212
REMARK   92  A    between atoms: _212  and  _213
REMARK   93  A    between atoms: _223  and  _225
REMARK   94  A    between atoms: _225  and  _226
REMARK   95  A    between atoms: _228  and  _230
REMARK   96  A    between atoms: _230  and  _231
REMARK   97  A    between atoms: _230  and  _233
REMARK   98  A    between atoms: _233  and  _234
REMARK   99  A    between atoms: _239  and  _241
REMARK  100  A    between atoms: _241  and  _242
REMARK  101  A    between atoms: _244  and  _246
REMARK  102  A    between atoms: _246  and  _247
REMARK  103  A    between atoms: _246  and  _249
REMARK  104  A    between atoms: _249  and  _250
REMARK  105  A    between atoms: _251  and  _253
REMARK  106  A    between atoms: _253  and  _254
REMARK  107  A    between atoms: _257  and  _259
REMARK  108  A    between atoms: _259  and  _260
REMARK  109  A    between atoms: _259  and  _262
REMARK  110  A    between atoms: _262  and  _263
REMARK  111  A    between atoms: _273  and  _275
REMARK  112  A    between atoms: _275  and  _276
REMARK  113  A    between atoms: _275  and  _278
REMARK  114  A    between atoms: _278  and  _279
REMARK  115  A    between atoms: _279  and  _280
REMARK  116  A    between atoms: _280  and  _281
REMARK  117  A    between atoms: _291  and  _292
REMARK  118  A    between atoms: _297  and  _299
REMARK  119  A    between atoms: _299  and  _300
REMARK  120  A    between atoms: _302  and  _304
REMARK  121  A    between atoms: _304  and  _305
REMARK  122  A    between atoms: _304  and  _307
REMARK  123  A    between atoms: _310  and  _312
REMARK  124  A    between atoms: _312  and  _313
REMARK  125  A    between atoms: _312  and  _315
REMARK  126  A    between atoms: _315  and  _316
REMARK  127  A    between atoms: _321  and  _322
REMARK                            x       y       z     vdW  Elec       q    Type
REMARK                         _______ _______ _______ _____ _____    ______ ____
ROOT
ATOM      1  O   HOH     1      50.113  26.627  39.090  0.00  0.00    +0.000 OA
ENDROOT
TORSDOF 0
REMARK  Name = ../refined-set-2016/1h4w/1h4w_pocket.pdb
REMARK  127 active torsions:
REMARK  status: ('A' for Active; 'I' for Inactive)
REMARK    1  A    between atoms: _1  and  _5
REMARK    2  A    between atoms: _5  and  _6
REMARK    3  A    between atoms: _5  and  _8
REMARK    4  A    between atoms: _8  and  _9
REMARK    5  A    between atoms: _12  and  _14
REMARK    6  A    between atoms: _14  and  _15
REMARK    7  A    between atoms: _14  and  _17
REMARK    8  A    between atoms: _20  and  _22
REMARK    9  A    between atoms: _22  and  _23
REMARK   10  A    between atoms: _22  and  _25
REMARK   11  A    between atoms: _25  and  _26
REMARK   12  A    between atoms: _31  and  _33
REMARK   13  A    between atoms: _33  and  _34
REMARK   14  A    between atoms: _33  and  _36
REMARK   15  A    between atoms: _36  and  _37
REMARK   16  A    between atoms: _40  and  _42
REMARK   17  A    between atoms: _42  and  _43
REMARK   18  A    between atoms: _42  and  _45
REMARK   19  A    between atoms: _45  and  _46
REMARK   20  A    between atoms: _49  and  _51
REMARK   21  A    between atoms: _51  and  _52
REMARK   22  A    between atoms: _51  and  _54
REMARK   23  A    between atoms: _54  and  _55
REMARK   24  A    between atoms: _60  and  _62
REMARK   25  A    between atoms: _62  and  _63
REMARK   26  A    between atoms: _62  and  _65
REMARK   27  A    between atoms: _65  and  _66
REMARK   28  A    between atoms: _68  and  _70
REMARK   29  A    between atoms: _70  and  _71
REMARK   30  A    between atoms: _70  and  _73
REMARK   31  A    between atoms: _73  and  _74
REMARK   32  A    between atoms: _79  and  _80
REMARK   33  A    between atoms: _82  and  _84
REMARK   34  A    between atoms: _84  and  _85
REMARK   35  A    between atoms: _84  and  _87
REMARK   36  A    between atoms: _90  and  _92
REMARK   37  A    between atoms: _92  and  _93
REMARK   38  A    between atoms: _92  and  _95
REMARK   39  A    between atoms: _95  and  _96
REMARK   40  A    between atoms: _96  and  _97
REMARK   41  A    between atoms: _97  and  _98
REMARK   42  A    between atoms: _98  and  _99
REMARK   43  A    between atoms: _103  and  _105
REMARK   44  A    between atoms: _105  and  _106
REMARK   45  A    between atoms: _105  and  _108
REMARK   46  A    between atoms: _108  and  _109
REMARK   47  A    between atoms: _112  and  _114
REMARK   48  A    between atoms: _114  and  _115
REMARK   49  A    between atoms: _114  and  _117
REMARK   50  A    between atoms: _117  and  _118
REMARK   51  A    between atoms: _120  and  _122
REMARK   52  A    between atoms: _122  and  _123
REMARK   53  A    between atoms: _122  and  _125
REMARK   54  A    between atoms: _125  and  _126
REMARK   55  A    between atoms: _126  and  _250
REMARK   56  A    between atoms: _127  and  _129
REMARK   57  A    between atoms: _129  and  _130
REMARK   58  A    between atoms: _129  and  _132
REMARK   59  A    between atoms: _132  and  _133
REMARK   60  A    between atoms: _133  and  _134
REMARK   61  A    between atoms: _139  and  _141
REMARK   62  A    between atoms: _141  and  _142
REMARK   63  A    between atoms: _141  and  _144
REMARK   64  A    between atoms: _144  and  _145
REMARK   65  A    between atoms: _145  and  _146
REMARK   66  A    between atoms: _146  and  _147
REMARK   67  A    between atoms: _156  and  _158
REMARK   68  A    between atoms: _158  and  _159
REMARK   69  A    between atoms: _158  and  _161
REMARK   70  A    between atoms: _161  and  _162
REMARK   71  A    between atoms: _165  and  _167
REMARK   72  A    between atoms: _167  and  _168
REMARK   73  A    between atoms: _167  and  _170
REMARK   74  A    between atoms: _170  and  _171
REMARK   75  A    between atoms: _173  and  _175
REMARK   76  A    between atoms: _175  and  _176
REMARK   77  A    between atoms: _178  and  _180
REMARK   78  A    between atoms: _180  and  _181
REMARK   79  A    between atoms: _183  and  _185
REMARK   80  A    between atoms: _185  and  _186
REMARK   81  A    between atoms: _185  and  _188
REMARK   82  A    between atoms: _191  and  _193
REMARK   83  A    between atoms: _193  and  _194
REMARK   84  A    between atoms: _193  and  _196
REMARK   85  A    between atoms: _199  and  _201
REMARK   86  A    between atoms: _201  and  _202
REMARK   87  A    between atoms: _201  and  _204
REMARK   88  A    between atoms: _204  and  _205
REMARK   89  A    between atoms: _207  and  _209
REMARK   90  A    between atoms: _209  and  _210
REMARK   91  A    between atoms: _209  and  _212
REMARK   92  A    between atoms: _212  and  _213
REMARK   93  A    between atoms: _223  and  _225
REMARK   94  A    between atoms: _225  and  _226
REMARK   95  A    between atoms: _228  and  _230
REMARK   96  A    between atoms: _230  and  _231
REMARK   97  A    between atoms: _230  and  _233
REMARK   98  A    between atoms: _233  and  _234
REMARK   99  A    between atoms: _239  and  _241
REMARK  100  A    between atoms: _241  and  _242
REMARK  101  A    between atoms: _244  and  _246
REMARK  102  A    between atoms: _246  and  _247
REMARK  103  A    between atoms: _246  and  _249
REMARK  104  A    between atoms: _249  and  _250
REMARK  105  A    between atoms: _251  and  _253
REMARK  106  A    between atoms: _253  and  _254
REMARK  107  A    between atoms: _257  and  _259
REMARK  108  A    between atoms: _259  and  _260
REMARK  109  A    between atoms: _259  and  _262
REMARK  110  A    between atoms: _262  and  _263
REMARK  111  A    between atoms: _273  and  _275
REMARK  112  A    between atoms: _275  and  _276
REMARK  113  A    between atoms: _275  and  _278
REMARK  114  A    between atoms: _278  and  _279
REMARK  115  A    between atoms: _279  and  _280
REMARK  116  A    between atoms: _280  and  _281
REMARK  117  A    between atoms: _291  and  _292
REMARK  118  A    between atoms: _297  and  _299
REMARK  119  A    between atoms: _299  and  _300
REMARK  120  A    between atoms: _302  and  _304
REMARK  121  A    between atoms: _304  and  _305
REMARK  122  A    between atoms: _304  and  _307
REMARK  123  A    between atoms: _310  and  _312
REMARK  124  A    between atoms: _312  and  _313
REMARK  125  A    between atoms: _312  and  _315
REMARK  126  A    between atoms: _315  and  _316
REMARK  127  A    between atoms: _321  and  _322
REMARK                            x       y       z     vdW  Elec       q    Type
REMARK                         _______ _______ _______ _____ _____    ______ ____
ROOT
ATOM      1  O   HOH     1      55.460  35.738  32.883  0.00  0.00    +0.000 OA
ENDROOT
TORSDOF 0
REMARK  Name = ../refined-set-2016/1h4w/1h4w_pocket.pdb
REMARK  127 active torsions:
REMARK  status: ('A' for Active; 'I' for Inactive)
REMARK    1  A    between atoms: _1  and  _5
REMARK    2  A    between atoms: _5  and  _6
REMARK    3  A    between atoms: _5  and  _8
REMARK    4  A    between atoms: _8  and  _9
REMARK    5  A    between atoms: _12  and  _14
REMARK    6  A    between atoms: _14  and  _15
REMARK    7  A    between atoms: _14  and  _17
REMARK    8  A    between atoms: _20  and  _22
REMARK    9  A    between atoms: _22  and  _23
REMARK   10  A    between atoms: _22  and  _25
REMARK   11  A    between atoms: _25  and  _26
REMARK   12  A    between atoms: _31  and  _33
REMARK   13  A    between atoms: _33  and  _34
REMARK   14  A    between atoms: _33  and  _36
REMARK   15  A    between atoms: _36  and  _37
REMARK   16  A    between atoms: _40  and  _42
REMARK   17  A    between atoms: _42  and  _43
REMARK   18  A    between atoms: _42  and  _45
REMARK   19  A    between atoms: _45  and  _46
REMARK   20  A    between atoms: _49  and  _51
REMARK   21  A    between atoms: _51  and  _52
REMARK   22  A    between atoms: _51  and  _54
REMARK   23  A    between atoms: _54  and  _55
REMARK   24  A    between atoms: _60  and  _62
REMARK   25  A    between atoms: _62  and  _63
REMARK   26  A    between atoms: _62  and  _65
REMARK   27  A    between atoms: _65  and  _66
REMARK   28  A    between atoms: _68  and  _70
REMARK   29  A    between atoms: _70  and  _71
REMARK   30  A    between atoms: _70  and  _73
REMARK   31  A    between atoms: _73  and  _74
REMARK   32  A    between atoms: _79  and  _80
REMARK   33  A    between atoms: _82  and  _84
REMARK   34  A    between atoms: _84  and  _85
REMARK   35  A    between atoms: _84  and  _87
REMARK   36  A    between atoms: _90  and  _92
REMARK   37  A    between atoms: _92  and  _93
REMARK   38  A    between atoms: _92  and  _95
REMARK   39  A    between atoms: _95  and  _96
REMARK   40  A    between atoms: _96  and  _97
REMARK   41  A    between atoms: _97  and  _98
REMARK   42  A    between atoms: _98  and  _99
REMARK   43  A    between atoms: _103  and  _105
REMARK   44  A    between atoms: _105  and  _106
REMARK   45  A    between atoms: _105  and  _108
REMARK   46  A    between atoms: _108  and  _109
REMARK   47  A    between atoms: _112  and  _114
REMARK   48  A    between atoms: _114  and  _115
REMARK   49  A    between atoms: _114  and  _117
REMARK   50  A    between atoms: _117  and  _118
REMARK   51  A    between atoms: _120  and  _122
REMARK   52  A    between atoms: _122  and  _123
REMARK   53  A    between atoms: _122  and  _125
REMARK   54  A    between atoms: _125  and  _126
REMARK   55  A    between atoms: _126  and  _250
REMARK   56  A    between atoms: _127  and  _129
REMARK   57  A    between atoms: _129  and  _130
REMARK   58  A    between atoms: _129  and  _132
REMARK   59  A    between atoms: _132  and  _133
REMARK   60  A    between atoms: _133  and  _134
REMARK   61  A    between atoms: _139  and  _141
REMARK   62  A    between atoms: _141  and  _142
REMARK   63  A    between atoms: _141  and  _144
REMARK   64  A    between atoms: _144  and  _145
REMARK   65  A    between atoms: _145  and  _146
REMARK   66  A    between atoms: _146  and  _147
REMARK   67  A    between atoms: _156  and  _158
REMARK   68  A    between atoms: _158  and  _159
REMARK   69  A    between atoms: _158  and  _161
REMARK   70  A    between atoms: _161  and  _162
REMARK   71  A    between atoms: _165  and  _167
REMARK   72  A    between atoms: _167  and  _168
REMARK   73  A    between atoms: _167  and  _170
REMARK   74  A    between atoms: _170  and  _171
REMARK   75  A    between atoms: _173  and  _175
REMARK   76  A    between atoms: _175  and  _176
REMARK   77  A    between atoms: _178  and  _180
REMARK   78  A    between atoms: _180  and  _181
REMARK   79  A    between atoms: _183  and  _185
REMARK   80  A    between atoms: _185  and  _186
REMARK   81  A    between atoms: _185  and  _188
REMARK   82  A    between atoms: _191  and  _193
REMARK   83  A    between atoms: _193  and  _194
REMARK   84  A    between atoms: _193  and  _196
REMARK   85  A    between atoms: _199  and  _201
REMARK   86  A    between atoms: _201  and  _202
REMARK   87  A    between atoms: _201  and  _204
REMARK   88  A    between atoms: _204  and  _205
REMARK   89  A    between atoms: _207  and  _209
REMARK   90  A    between atoms: _209  and  _210
REMARK   91  A    between atoms: _209  and  _212
REMARK   92  A    between atoms: _212  and  _213
REMARK   93  A    between atoms: _223  and  _225
REMARK   94  A    between atoms: _225  and  _226
REMARK   95  A    between atoms: _228  and  _230
REMARK   96  A    between atoms: _230  and  _231
REMARK   97  A    between atoms: _230  and  _233
REMARK   98  A    between atoms: _233  and  _234
REMARK   99  A    between atoms: _239  and  _241
REMARK  100  A    between atoms: _241  and  _242
REMARK  101  A    between atoms: _244  and  _246
REMARK  102  A    between atoms: _246  and  _247
REMARK  103  A    between atoms: _246  and  _249
REMARK  104  A    between atoms: _249  and  _250
REMARK  105  A    between atoms: _251  and  _253
REMARK  106  A    between atoms: _253  and  _254
REMARK  107  A    between atoms: _257  and  _259
REMARK  108  A    between atoms: _259  and  _260
REMARK  109  A    between atoms: _259  and  _262
REMARK  110  A    between atoms: _262  and  _263
REMARK  111  A    between atoms: _273  and  _275
REMARK  112  A    between atoms: _275  and  _276
REMARK  113  A    between atoms: _275  and  _278
REMARK  114  A    between atoms: _278  and  _279
REMARK  115  A    between atoms: _279  and  _280
REMARK  116  A    between atoms: _280  and  _281
REMARK  117  A    between atoms: _291  and  _292
REMARK  118  A    between atoms: _297  and  _299
REMARK  119  A    between atoms: _299  and  _300
REMARK  120  A    between atoms: _302  and  _304
REMARK  121  A    between atoms: _304  and  _305
REMARK  122  A    between atoms: _304  and  _307
REMARK  123  A    between atoms: _310  and  _312
REMARK  124  A    between atoms: _312  and  _313
REMARK  125  A    between atoms: _312  and  _315
REMARK  126  A    between atoms: _315  and  _316
REMARK  127  A    between atoms: _321  and  _322
REMARK                            x       y       z     vdW  Elec       q    Type
REMARK                         _______ _______ _______ _____ _____    ______ ____
ROOT
ATOM      1  O   HOH     1      52.267  46.771  38.483  0.00  0.00    +0.000 OA
ENDROOT
TORSDOF 0
REMARK  Name = ../refined-set-2016/1h4w/1h4w_pocket.pdb
REMARK  127 active torsions:
REMARK  status: ('A' for Active; 'I' for Inactive)
REMARK    1  A    between atoms: _1  and  _5
REMARK    2  A    between atoms: _5  and  _6
REMARK    3  A    between atoms: _5  and  _8
REMARK    4  A    between atoms: _8  and  _9
REMARK    5  A    between atoms: _12  and  _14
REMARK    6  A    between atoms: _14  and  _15
REMARK    7  A    between atoms: _14  and  _17
REMARK    8  A    between atoms: _20  and  _22
REMARK    9  A    between atoms: _22  and  _23
REMARK   10  A    between atoms: _22  and  _25
REMARK   11  A    between atoms: _25  and  _26
REMARK   12  A    between atoms: _31  and  _33
REMARK   13  A    between atoms: _33  and  _34
REMARK   14  A    between atoms: _33  and  _36
REMARK   15  A    between atoms: _36  and  _37
REMARK   16  A    between atoms: _40  and  _42
REMARK   17  A    between atoms: _42  and  _43
REMARK   18  A    between atoms: _42  and  _45
REMARK   19  A    between atoms: _45  and  _46
REMARK   20  A    between atoms: _49  and  _51
REMARK   21  A    between atoms: _51  and  _52
REMARK   22  A    between atoms: _51  and  _54
REMARK   23  A    between atoms: _54  and  _55
REMARK   24  A    between atoms: _60  and  _62
REMARK   25  A    between atoms: _62  and  _63
REMARK   26  A    between atoms: _62  and  _65
REMARK   27  A    between atoms: _65  and  _66
REMARK   28  A    between atoms: _68  and  _70
REMARK   29  A    between atoms: _70  and  _71
REMARK   30  A    between atoms: _70  and  _73
REMARK   31  A    between atoms: _73  and  _74
REMARK   32  A    between atoms: _79  and  _80
REMARK   33  A    between atoms: _82  and  _84
REMARK   34  A    between atoms: _84  and  _85
REMARK   35  A    between atoms: _84  and  _87
REMARK   36  A    between atoms: _90  and  _92
REMARK   37  A    between atoms: _92  and  _93
REMARK   38  A    between atoms: _92  and  _95
REMARK   39  A    between atoms: _95  and  _96
REMARK   40  A    between atoms: _96  and  _97
REMARK   41  A    between atoms: _97  and  _98
REMARK   42  A    between atoms: _98  and  _99
REMARK   43  A    between atoms: _103  and  _105
REMARK   44  A    between atoms: _105  and  _106
REMARK   45  A    between atoms: _105  and  _108
REMARK   46  A    between atoms: _108  and  _109
REMARK   47  A    between atoms: _112  and  _114
REMARK   48  A    between atoms: _114  and  _115
REMARK   49  A    between atoms: _114  and  _117
REMARK   50  A    between atoms: _117  and  _118
REMARK   51  A    between atoms: _120  and  _122
REMARK   52  A    between atoms: _122  and  _123
REMARK   53  A    between atoms: _122  and  _125
REMARK   54  A    between atoms: _125  and  _126
REMARK   55  A    between atoms: _126  and  _250
REMARK   56  A    between atoms: _127  and  _129
REMARK   57  A    between atoms: _129  and  _130
REMARK   58  A    between atoms: _129  and  _132
REMARK   59  A    between atoms: _132  and  _133
REMARK   60  A    between atoms: _133  and  _134
REMARK   61  A    between atoms: _139  and  _141
REMARK   62  A    between atoms: _141  and  _142
REMARK   63  A    between atoms: _141  and  _144
REMARK   64  A    between atoms: _144  and  _145
REMARK   65  A    between atoms: _145  and  _146
REMARK   66  A    between atoms: _146  and  _147
REMARK   67  A    between atoms: _156  and  _158
REMARK   68  A    between atoms: _158  and  _159
REMARK   69  A    between atoms: _158  and  _161
REMARK   70  A    between atoms: _161  and  _162
REMARK   71  A    between atoms: _165  and  _167
REMARK   72  A    between atoms: _167  and  _168
REMARK   73  A    between atoms: _167  and  _170
REMARK   74  A    between atoms: _170  and  _171
REMARK   75  A    between atoms: _173  and  _175
REMARK   76  A    between atoms: _175  and  _176
REMARK   77  A    between atoms: _178  and  _180
REMARK   78  A    between atoms: _180  and  _181
REMARK   79  A    between atoms: _183  and  _185
REMARK   80  A    between atoms: _185  and  _186
REMARK   81  A    between atoms: _185  and  _188
REMARK   82  A    between atoms: _191  and  _193
REMARK   83  A    between atoms: _193  and  _194
REMARK   84  A    between atoms: _193  and  _196
REMARK   85  A    between atoms: _199  and  _201
REMARK   86  A    between atoms: _201  and  _202
REMARK   87  A    between atoms: _201  and  _204
REMARK   88  A    between atoms: _204  and  _205
REMARK   89  A    between atoms: _207  and  _209
REMARK   90  A    between atoms: _209  and  _210
REMARK   91  A    between atoms: _209  and  _212
REMARK   92  A    between atoms: _212  and  _213
REMARK   93  A    between atoms: _223  and  _225
REMARK   94  A    between atoms: _225  and  _226
REMARK   95  A    between atoms: _228  and  _230
REMARK   96  A    between atoms: _230  and  _231
REMARK   97  A    between atoms: _230  and  _233
REMARK   98  A    between atoms: _233  and  _234
REMARK   99  A    between atoms: _239  and  _241
REMARK  100  A    between atoms: _241  and  _242
REMARK  101  A    between atoms: _244  and  _246
REMARK  102  A    between atoms: _246  and  _247
REMARK  103  A    between atoms: _246  and  _249
REMARK  104  A    between atoms: _249  and  _250
REMARK  105  A    between atoms: _251  and  _253
REMARK  106  A    between atoms: _253  and  _254
REMARK  107  A    between atoms: _257  and  _259
REMARK  108  A    between atoms: _259  and  _260
REMARK  109  A    between atoms: _259  and  _262
REMARK  110  A    between atoms: _262  and  _263
REMARK  111  A    between atoms: _273  and  _275
REMARK  112  A    between atoms: _275  and  _276
REMARK  113  A    between atoms: _275  and  _278
REMARK  114  A    between atoms: _278  and  _279
REMARK  115  A    between atoms: _279  and  _280
REMARK  116  A    between atoms: _280  and  _281
REMARK  117  A    between atoms: _291  and  _292
REMARK  118  A    between atoms: _297  and  _299
REMARK  119  A    between atoms: _299  and  _300
REMARK  120  A    between atoms: _302  and  _304
REMARK  121  A    between atoms: _304  and  _305
REMARK  122  A    between atoms: _304  and  _307
REMARK  123  A    between atoms: _310  and  _312
REMARK  124  A    between atoms: _312  and  _313
REMARK  125  A    between atoms: _312  and  _315
REMARK  126  A    between atoms: _315  and  _316
REMARK  127  A    between atoms: _321  and  _322
REMARK                            x       y       z     vdW  Elec       q    Type
REMARK                         _______ _______ _______ _____ _____    ______ ____
ROOT
ATOM      1  O   HOH     1      53.599  44.551  41.508  0.00  0.00    +0.000 OA
ENDROOT
TORSDOF 0
REMARK  Name = ../refined-set-2016/1h4w/1h4w_pocket.pdb
REMARK  127 active torsions:
REMARK  status: ('A' for Active; 'I' for Inactive)
REMARK    1  A    between atoms: _1  and  _5
REMARK    2  A    between atoms: _5  and  _6
REMARK    3  A    between atoms: _5  and  _8
REMARK    4  A    between atoms: _8  and  _9
REMARK    5  A    between atoms: _12  and  _14
REMARK    6  A    between atoms: _14  and  _15
REMARK    7  A    between atoms: _14  and  _17
REMARK    8  A    between atoms: _20  and  _22
REMARK    9  A    between atoms: _22  and  _23
REMARK   10  A    between atoms: _22  and  _25
REMARK   11  A    between atoms: _25  and  _26
REMARK   12  A    between atoms: _31  and  _33
REMARK   13  A    between atoms: _33  and  _34
REMARK   14  A    between atoms: _33  and  _36
REMARK   15  A    between atoms: _36  and  _37
REMARK   16  A    between atoms: _40  and  _42
REMARK   17  A    between atoms: _42  and  _43
REMARK   18  A    between atoms: _42  and  _45
REMARK   19  A    between atoms: _45  and  _46
REMARK   20  A    between atoms: _49  and  _51
REMARK   21  A    between atoms: _51  and  _52
REMARK   22  A    between atoms: _51  and  _54
REMARK   23  A    between atoms: _54  and  _55
REMARK   24  A    between atoms: _60  and  _62
REMARK   25  A    between atoms: _62  and  _63
REMARK   26  A    between atoms: _62  and  _65
REMARK   27  A    between atoms: _65  and  _66
REMARK   28  A    between atoms: _68  and  _70
REMARK   29  A    between atoms: _70  and  _71
REMARK   30  A    between atoms: _70  and  _73
REMARK   31  A    between atoms: _73  and  _74
REMARK   32  A    between atoms: _79  and  _80
REMARK   33  A    between atoms: _82  and  _84
REMARK   34  A    between atoms: _84  and  _85
REMARK   35  A    between atoms: _84  and  _87
REMARK   36  A    between atoms: _90  and  _92
REMARK   37  A    between atoms: _92  and  _93
REMARK   38  A    between atoms: _92  and  _95
REMARK   39  A    between atoms: _95  and  _96
REMARK   40  A    between atoms: _96  and  _97
REMARK   41  A    between atoms: _97  and  _98
REMARK   42  A    between atoms: _98  and  _99
REMARK   43  A    between atoms: _103  and  _105
REMARK   44  A    between atoms: _105  and  _106
REMARK   45  A    between atoms: _105  and  _108
REMARK   46  A    between atoms: _108  and  _109
REMARK   47  A    between atoms: _112  and  _114
REMARK   48  A    between atoms: _114  and  _115
REMARK   49  A    between atoms: _114  and  _117
REMARK   50  A    between atoms: _117  and  _118
REMARK   51  A    between atoms: _120  and  _122
REMARK   52  A    between atoms: _122  and  _123
REMARK   53  A    between atoms: _122  and  _125
REMARK   54  A    between atoms: _125  and  _126
REMARK   55  A    between atoms: _126  and  _250
REMARK   56  A    between atoms: _127  and  _129
REMARK   57  A    between atoms: _129  and  _130
REMARK   58  A    between atoms: _129  and  _132
REMARK   59  A    between atoms: _132  and  _133
REMARK   60  A    between atoms: _133  and  _134
REMARK   61  A    between atoms: _139  and  _141
REMARK   62  A    between atoms: _141  and  _142
REMARK   63  A    between atoms: _141  and  _144
REMARK   64  A    between atoms: _144  and  _145
REMARK   65  A    between atoms: _145  and  _146
REMARK   66  A    between atoms: _146  and  _147
REMARK   67  A    between atoms: _156  and  _158
REMARK   68  A    between atoms: _158  and  _159
REMARK   69  A    between atoms: _158  and  _161
REMARK   70  A    between atoms: _161  and  _162
REMARK   71  A    between atoms: _165  and  _167
REMARK   72  A    between atoms: _167  and  _168
REMARK   73  A    between atoms: _167  and  _170
REMARK   74  A    between atoms: _170  and  _171
REMARK   75  A    between atoms: _173  and  _175
REMARK   76  A    between atoms: _175  and  _176
REMARK   77  A    between atoms: _178  and  _180
REMARK   78  A    between atoms: _180  and  _181
REMARK   79  A    between atoms: _183  and  _185
REMARK   80  A    between atoms: _185  and  _186
REMARK   81  A    between atoms: _185  and  _188
REMARK   82  A    between atoms: _191  and  _193
REMARK   83  A    between atoms: _193  and  _194
REMARK   84  A    between atoms: _193  and  _196
REMARK   85  A    between atoms: _199  and  _201
REMARK   86  A    between atoms: _201  and  _202
REMARK   87  A    between atoms: _201  and  _204
REMARK   88  A    between atoms: _204  and  _205
REMARK   89  A    between atoms: _207  and  _209
REMARK   90  A    between atoms: _209  and  _210
REMARK   91  A    between atoms: _209  and  _212
REMARK   92  A    between atoms: _212  and  _213
REMARK   93  A    between atoms: _223  and  _225
REMARK   94  A    between atoms: _225  and  _226
REMARK   95  A    between atoms: _228  and  _230
REMARK   96  A    between atoms: _230  and  _231
REMARK   97  A    between atoms: _230  and  _233
REMARK   98  A    between atoms: _233  and  _234
REMARK   99  A    between atoms: _239  and  _241
REMARK  100  A    between atoms: _241  and  _242
REMARK  101  A    between atoms: _244  and  _246
REMARK  102  A    between atoms: _246  and  _247
REMARK  103  A    between atoms: _246  and  _249
REMARK  104  A    between atoms: _249  and  _250
REMARK  105  A    between atoms: _251  and  _253
REMARK  106  A    between atoms: _253  and  _254
REMARK  107  A    between atoms: _257  and  _259
REMARK  108  A    between atoms: _259  and  _260
REMARK  109  A    between atoms: _259  and  _262
REMARK  110  A    between atoms: _262  and  _263
REMARK  111  A    between atoms: _273  and  _275
REMARK  112  A    between atoms: _275  and  _276
REMARK  113  A    between atoms: _275  and  _278
REMARK  114  A    between atoms: _278  and  _279
REMARK  115  A    between atoms: _279  and  _280
REMARK  116  A    between atoms: _280  and  _281
REMARK  117  A    between atoms: _291  and  _292
REMARK  118  A    between atoms: _297  and  _299
REMARK  119  A    between atoms: _299  and  _300
REMARK  120  A    between atoms: _302  and  _304
REMARK  121  A    between atoms: _304  and  _305
REMARK  122  A    between atoms: _304  and  _307
REMARK  123  A    between atoms: _310  and  _312
REMARK  124  A    between atoms: _312  and  _313
REMARK  125  A    between atoms: _312  and  _315
REMARK  126  A    between atoms: _315  and  _316
REMARK  127  A    between atoms: _321  and  _322
REMARK                            x       y       z     vdW  Elec       q    Type
REMARK                         _______ _______ _______ _____ _____    ______ ____
ROOT
ATOM      1  O   HOH     1      54.138  33.177  33.788  0.00  0.00    +0.000 OA
ENDROOT
TORSDOF 0
REMARK  Name = ../refined-set-2016/1h4w/1h4w_pocket.pdb
REMARK  127 active torsions:
REMARK  status: ('A' for Active; 'I' for Inactive)
REMARK    1  A    between atoms: _1  and  _5
REMARK    2  A    between atoms: _5  and  _6
REMARK    3  A    between atoms: _5  and  _8
REMARK    4  A    between atoms: _8  and  _9
REMARK    5  A    between atoms: _12  and  _14
REMARK    6  A    between atoms: _14  and  _15
REMARK    7  A    between atoms: _14  and  _17
REMARK    8  A    between atoms: _20  and  _22
REMARK    9  A    between atoms: _22  and  _23
REMARK   10  A    between atoms: _22  and  _25
REMARK   11  A    between atoms: _25  and  _26
REMARK   12  A    between atoms: _31  and  _33
REMARK   13  A    between atoms: _33  and  _34
REMARK   14  A    between atoms: _33  and  _36
REMARK   15  A    between atoms: _36  and  _37
REMARK   16  A    between atoms: _40  and  _42
REMARK   17  A    between atoms: _42  and  _43
REMARK   18  A    between atoms: _42  and  _45
REMARK   19  A    between atoms: _45  and  _46
REMARK   20  A    between atoms: _49  and  _51
REMARK   21  A    between atoms: _51  and  _52
REMARK   22  A    between atoms: _51  and  _54
REMARK   23  A    between atoms: _54  and  _55
REMARK   24  A    between atoms: _60  and  _62
REMARK   25  A    between atoms: _62  and  _63
REMARK   26  A    between atoms: _62  and  _65
REMARK   27  A    between atoms: _65  and  _66
REMARK   28  A    between atoms: _68  and  _70
REMARK   29  A    between atoms: _70  and  _71
REMARK   30  A    between atoms: _70  and  _73
REMARK   31  A    between atoms: _73  and  _74
REMARK   32  A    between atoms: _79  and  _80
REMARK   33  A    between atoms: _82  and  _84
REMARK   34  A    between atoms: _84  and  _85
REMARK   35  A    between atoms: _84  and  _87
REMARK   36  A    between atoms: _90  and  _92
REMARK   37  A    between atoms: _92  and  _93
REMARK   38  A    between atoms: _92  and  _95
REMARK   39  A    between atoms: _95  and  _96
REMARK   40  A    between atoms: _96  and  _97
REMARK   41  A    between atoms: _97  and  _98
REMARK   42  A    between atoms: _98  and  _99
REMARK   43  A    between atoms: _103  and  _105
REMARK   44  A    between atoms: _105  and  _106
REMARK   45  A    between atoms: _105  and  _108
REMARK   46  A    between atoms: _108  and  _109
REMARK   47  A    between atoms: _112  and  _114
REMARK   48  A    between atoms: _114  and  _115
REMARK   49  A    between atoms: _114  and  _117
REMARK   50  A    between atoms: _117  and  _118
REMARK   51  A    between atoms: _120  and  _122
REMARK   52  A    between atoms: _122  and  _123
REMARK   53  A    between atoms: _122  and  _125
REMARK   54  A    between atoms: _125  and  _126
REMARK   55  A    between atoms: _126  and  _250
REMARK   56  A    between atoms: _127  and  _129
REMARK   57  A    between atoms: _129  and  _130
REMARK   58  A    between atoms: _129  and  _132
REMARK   59  A    between atoms: _132  and  _133
REMARK   60  A    between atoms: _133  and  _134
REMARK   61  A    between atoms: _139  and  _141
REMARK   62  A    between atoms: _141  and  _142
REMARK   63  A    between atoms: _141  and  _144
REMARK   64  A    between atoms: _144  and  _145
REMARK   65  A    between atoms: _145  and  _146
REMARK   66  A    between atoms: _146  and  _147
REMARK   67  A    between atoms: _156  and  _158
REMARK   68  A    between atoms: _158  and  _159
REMARK   69  A    between atoms: _158  and  _161
REMARK   70  A    between atoms: _161  and  _162
REMARK   71  A    between atoms: _165  and  _167
REMARK   72  A    between atoms: _167  and  _168
REMARK   73  A    between atoms: _167  and  _170
REMARK   74  A    between atoms: _170  and  _171
REMARK   75  A    between atoms: _173  and  _175
REMARK   76  A    between atoms: _175  and  _176
REMARK   77  A    between atoms: _178  and  _180
REMARK   78  A    between atoms: _180  and  _181
REMARK   79  A    between atoms: _183  and  _185
REMARK   80  A    between atoms: _185  and  _186
REMARK   81  A    between atoms: _185  and  _188
REMARK   82  A    between atoms: _191  and  _193
REMARK   83  A    between atoms: _193  and  _194
REMARK   84  A    between atoms: _193  and  _196
REMARK   85  A    between atoms: _199  and  _201
REMARK   86  A    between atoms: _201  and  _202
REMARK   87  A    between atoms: _201  and  _204
REMARK   88  A    between atoms: _204  and  _205
REMARK   89  A    between atoms: _207  and  _209
REMARK   90  A    between atoms: _209  and  _210
REMARK   91  A    between atoms: _209  and  _212
REMARK   92  A    between atoms: _212  and  _213
REMARK   93  A    between atoms: _223  and  _225
REMARK   94  A    between atoms: _225  and  _226
REMARK   95  A    between atoms: _228  and  _230
REMARK   96  A    between atoms: _230  and  _231
REMARK   97  A    between atoms: _230  and  _233
REMARK   98  A    between atoms: _233  and  _234
REMARK   99  A    between atoms: _239  and  _241
REMARK  100  A    between atoms: _241  and  _242
REMARK  101  A    between atoms: _244  and  _246
REMARK  102  A    between atoms: _246  and  _247
REMARK  103  A    between atoms: _246  and  _249
REMARK  104  A    between atoms: _249  and  _250
REMARK  105  A    between atoms: _251  and  _253
REMARK  106  A    between atoms: _253  and  _254
REMARK  107  A    between atoms: _257  and  _259
REMARK  108  A    between atoms: _259  and  _260
REMARK  109  A    between atoms: _259  and  _262
REMARK  110  A    between atoms: _262  and  _263
REMARK  111  A    between atoms: _273  and  _275
REMARK  112  A    between atoms: _275  and  _276
REMARK  113  A    between atoms: _275  and  _278
REMARK  114  A    between atoms: _278  and  _279
REMARK  115  A    between atoms: _279  and  _280
REMARK  116  A    between atoms: _280  and  _281
REMARK  117  A    between atoms: _291  and  _292
REMARK  118  A    between atoms: _297  and  _299
REMARK  119  A    between atoms: _299  and  _300
REMARK  120  A    between atoms: _302  and  _304
REMARK  121  A    between atoms: _304  and  _305
REMARK  122  A    between atoms: _304  and  _307
REMARK  123  A    between atoms: _310  and  _312
REMARK  124  A    between atoms: _312  and  _313
REMARK  125  A    between atoms: _312  and  _315
REMARK  126  A    between atoms: _315  and  _316
REMARK  127  A    between atoms: _321  and  _322
REMARK                            x       y       z     vdW  Elec       q    Type
REMARK                         _______ _______ _______ _____ _____    ______ ____
ROOT
ATOM      1  O   HOH     1      50.109  29.547  39.145  0.00  0.00    +0.000 OA
ENDROOT
TORSDOF 0
REMARK  Name = ../refined-set-2016/1h4w/1h4w_pocket.pdb
REMARK  127 active torsions:
REMARK  status: ('A' for Active; 'I' for Inactive)
REMARK    1  A    between atoms: _1  and  _5
REMARK    2  A    between atoms: _5  and  _6
REMARK    3  A    between atoms: _5  and  _8
REMARK    4  A    between atoms: _8  and  _9
REMARK    5  A    between atoms: _12  and  _14
REMARK    6  A    between atoms: _14  and  _15
REMARK    7  A    between atoms: _14  and  _17
REMARK    8  A    between atoms: _20  and  _22
REMARK    9  A    between atoms: _22  and  _23
REMARK   10  A    between atoms: _22  and  _25
REMARK   11  A    between atoms: _25  and  _26
REMARK   12  A    between atoms: _31  and  _33
REMARK   13  A    between atoms: _33  and  _34
REMARK   14  A    between atoms: _33  and  _36
REMARK   15  A    between atoms: _36  and  _37
REMARK   16  A    between atoms: _40  and  _42
REMARK   17  A    between atoms: _42  and  _43
REMARK   18  A    between atoms: _42  and  _45
REMARK   19  A    between atoms: _45  and  _46
REMARK   20  A    between atoms: _49  and  _51
REMARK   21  A    between atoms: _51  and  _52
REMARK   22  A    between atoms: _51  and  _54
REMARK   23  A    between atoms: _54  and  _55
REMARK   24  A    between atoms: _60  and  _62
REMARK   25  A    between atoms: _62  and  _63
REMARK   26  A    between atoms: _62  and  _65
REMARK   27  A    between atoms: _65  and  _66
REMARK   28  A    between atoms: _68  and  _70
REMARK   29  A    between atoms: _70  and  _71
REMARK   30  A    between atoms: _70  and  _73
REMARK   31  A    between atoms: _73  and  _74
REMARK   32  A    between atoms: _79  and  _80
REMARK   33  A    between atoms: _82  and  _84
REMARK   34  A    between atoms: _84  and  _85
REMARK   35  A    between atoms: _84  and  _87
REMARK   36  A    between atoms: _90  and  _92
REMARK   37  A    between atoms: _92  and  _93
REMARK   38  A    between atoms: _92  and  _95
REMARK   39  A    between atoms: _95  and  _96
REMARK   40  A    between atoms: _96  and  _97
REMARK   41  A    between atoms: _97  and  _98
REMARK   42  A    between atoms: _98  and  _99
REMARK   43  A    between atoms: _103  and  _105
REMARK   44  A    between atoms: _105  and  _106
REMARK   45  A    between atoms: _105  and  _108
REMARK   46  A    between atoms: _108  and  _109
REMARK   47  A    between atoms: _112  and  _114
REMARK   48  A    between atoms: _114  and  _115
REMARK   49  A    between atoms: _114  and  _117
REMARK   50  A    between atoms: _117  and  _118
REMARK   51  A    between atoms: _120  and  _122
REMARK   52  A    between atoms: _122  and  _123
REMARK   53  A    between atoms: _122  and  _125
REMARK   54  A    between atoms: _125  and  _126
REMARK   55  A    between atoms: _126  and  _250
REMARK   56  A    between atoms: _127  and  _129
REMARK   57  A    between atoms: _129  and  _130
REMARK   58  A    between atoms: _129  and  _132
REMARK   59  A    between atoms: _132  and  _133
REMARK   60  A    between atoms: _133  and  _134
REMARK   61  A    between atoms: _139  and  _141
REMARK   62  A    between atoms: _141  and  _142
REMARK   63  A    between atoms: _141  and  _144
REMARK   64  A    between atoms: _144  and  _145
REMARK   65  A    between atoms: _145  and  _146
REMARK   66  A    between atoms: _146  and  _147
REMARK   67  A    between atoms: _156  and  _158
REMARK   68  A    between atoms: _158  and  _159
REMARK   69  A    between atoms: _158  and  _161
REMARK   70  A    between atoms: _161  and  _162
REMARK   71  A    between atoms: _165  and  _167
REMARK   72  A    between atoms: _167  and  _168
REMARK   73  A    between atoms: _167  and  _170
REMARK   74  A    between atoms: _170  and  _171
REMARK   75  A    between atoms: _173  and  _175
REMARK   76  A    between atoms: _175  and  _176
REMARK   77  A    between atoms: _178  and  _180
REMARK   78  A    between atoms: _180  and  _181
REMARK   79  A    between atoms: _183  and  _185
REMARK   80  A    between atoms: _185  and  _186
REMARK   81  A    between atoms: _185  and  _188
REMARK   82  A    between atoms: _191  and  _193
REMARK   83  A    between atoms: _193  and  _194
REMARK   84  A    between atoms: _193  and  _196
REMARK   85  A    between atoms: _199  and  _201
REMARK   86  A    between atoms: _201  and  _202
REMARK   87  A    between atoms: _201  and  _204
REMARK   88  A    between atoms: _204  and  _205
REMARK   89  A    between atoms: _207  and  _209
REMARK   90  A    between atoms: _209  and  _210
REMARK   91  A    between atoms: _209  and  _212
REMARK   92  A    between atoms: _212  and  _213
REMARK   93  A    between atoms: _223  and  _225
REMARK   94  A    between atoms: _225  and  _226
REMARK   95  A    between atoms: _228  and  _230
REMARK   96  A    between atoms: _230  and  _231
REMARK   97  A    between atoms: _230  and  _233
REMARK   98  A    between atoms: _233  and  _234
REMARK   99  A    between atoms: _239  and  _241
REMARK  100  A    between atoms: _241  and  _242
REMARK  101  A    between atoms: _244  and  _246
REMARK  102  A    between atoms: _246  and  _247
REMARK  103  A    between atoms: _246  and  _249
REMARK  104  A    between atoms: _249  and  _250
REMARK  105  A    between atoms: _251  and  _253
REMARK  106  A    between atoms: _253  and  _254
REMARK  107  A    between atoms: _257  and  _259
REMARK  108  A    between atoms: _259  and  _260
REMARK  109  A    between atoms: _259  and  _262
REMARK  110  A    between atoms: _262  and  _263
REMARK  111  A    between atoms: _273  and  _275
REMARK  112  A    between atoms: _275  and  _276
REMARK  113  A    between atoms: _275  and  _278
REMARK  114  A    between atoms: _278  and  _279
REMARK  115  A    between atoms: _279  and  _280
REMARK  116  A    between atoms: _280  and  _281
REMARK  117  A    between atoms: _291  and  _292
REMARK  118  A    between atoms: _297  and  _299
REMARK  119  A    between atoms: _299  and  _300
REMARK  120  A    between atoms: _302  and  _304
REMARK  121  A    between atoms: _304  and  _305
REMARK  122  A    between atoms: _304  and  _307
REMARK  123  A    between atoms: _310  and  _312
REMARK  124  A    between atoms: _312  and  _313
REMARK  125  A    between atoms: _312  and  _315
REMARK  126  A    between atoms: _315  and  _316
REMARK  127  A    between atoms: _321  and  _322
REMARK                            x       y       z     vdW  Elec       q    Type
REMARK                         _______ _______ _______ _____ _____    ______ ____
ROOT
ATOM      1  O   HOH     1      45.753  32.790  39.056  0.00  0.00    +0.000 OA
ENDROOT
TORSDOF 0
REMARK  Name = ../refined-set-2016/1h4w/1h4w_pocket.pdb
REMARK  127 active torsions:
REMARK  status: ('A' for Active; 'I' for Inactive)
REMARK    1  A    between atoms: _1  and  _5
REMARK    2  A    between atoms: _5  and  _6
REMARK    3  A    between atoms: _5  and  _8
REMARK    4  A    between atoms: _8  and  _9
REMARK    5  A    between atoms: _12  and  _14
REMARK    6  A    between atoms: _14  and  _15
REMARK    7  A    between atoms: _14  and  _17
REMARK    8  A    between atoms: _20  and  _22
REMARK    9  A    between atoms: _22  and  _23
REMARK   10  A    between atoms: _22  and  _25
REMARK   11  A    between atoms: _25  and  _26
REMARK   12  A    between atoms: _31  and  _33
REMARK   13  A    between atoms: _33  and  _34
REMARK   14  A    between atoms: _33  and  _36
REMARK   15  A    between atoms: _36  and  _37
REMARK   16  A    between atoms: _40  and  _42
REMARK   17  A    between atoms: _42  and  _43
REMARK   18  A    between atoms: _42  and  _45
REMARK   19  A    between atoms: _45  and  _46
REMARK   20  A    between atoms: _49  and  _51
REMARK   21  A    between atoms: _51  and  _52
REMARK   22  A    between atoms: _51  and  _54
REMARK   23  A    between atoms: _54  and  _55
REMARK   24  A    between atoms: _60  and  _62
REMARK   25  A    between atoms: _62  and  _63
REMARK   26  A    between atoms: _62  and  _65
REMARK   27  A    between atoms: _65  and  _66
REMARK   28  A    between atoms: _68  and  _70
REMARK   29  A    between atoms: _70  and  _71
REMARK   30  A    between atoms: _70  and  _73
REMARK   31  A    between atoms: _73  and  _74
REMARK   32  A    between atoms: _79  and  _80
REMARK   33  A    between atoms: _82  and  _84
REMARK   34  A    between atoms: _84  and  _85
REMARK   35  A    between atoms: _84  and  _87
REMARK   36  A    between atoms: _90  and  _92
REMARK   37  A    between atoms: _92  and  _93
REMARK   38  A    between atoms: _92  and  _95
REMARK   39  A    between atoms: _95  and  _96
REMARK   40  A    between atoms: _96  and  _97
REMARK   41  A    between atoms: _97  and  _98
REMARK   42  A    between atoms: _98  and  _99
REMARK   43  A    between atoms: _103  and  _105
REMARK   44  A    between atoms: _105  and  _106
REMARK   45  A    between atoms: _105  and  _108
REMARK   46  A    between atoms: _108  and  _109
REMARK   47  A    between atoms: _112  and  _114
REMARK   48  A    between atoms: _114  and  _115
REMARK   49  A    between atoms: _114  and  _117
REMARK   50  A    between atoms: _117  and  _118
REMARK   51  A    between atoms: _120  and  _122
REMARK   52  A    between atoms: _122  and  _123
REMARK   53  A    between atoms: _122  and  _125
REMARK   54  A    between atoms: _125  and  _126
REMARK   55  A    between atoms: _126  and  _250
REMARK   56  A    between atoms: _127  and  _129
REMARK   57  A    between atoms: _129  and  _130
REMARK   58  A    between atoms: _129  and  _132
REMARK   59  A    between atoms: _132  and  _133
REMARK   60  A    between atoms: _133  and  _134
REMARK   61  A    between atoms: _139  and  _141
REMARK   62  A    between atoms: _141  and  _142
REMARK   63  A    between atoms: _141  and  _144
REMARK   64  A    between atoms: _144  and  _145
REMARK   65  A    between atoms: _145  and  _146
REMARK   66  A    between atoms: _146  and  _147
REMARK   67  A    between atoms: _156  and  _158
REMARK   68  A    between atoms: _158  and  _159
REMARK   69  A    between atoms: _158  and  _161
REMARK   70  A    between atoms: _161  and  _162
REMARK   71  A    between atoms: _165  and  _167
REMARK   72  A    between atoms: _167  and  _168
REMARK   73  A    between atoms: _167  and  _170
REMARK   74  A    between atoms: _170  and  _171
REMARK   75  A    between atoms: _173  and  _175
REMARK   76  A    between atoms: _175  and  _176
REMARK   77  A    between atoms: _178  and  _180
REMARK   78  A    between atoms: _180  and  _181
REMARK   79  A    between atoms: _183  and  _185
REMARK   80  A    between atoms: _185  and  _186
REMARK   81  A    between atoms: _185  and  _188
REMARK   82  A    between atoms: _191  and  _193
REMARK   83  A    between atoms: _193  and  _194
REMARK   84  A    between atoms: _193  and  _196
REMARK   85  A    between atoms: _199  and  _201
REMARK   86  A    between atoms: _201  and  _202
REMARK   87  A    between atoms: _201  and  _204
REMARK   88  A    between atoms: _204  and  _205
REMARK   89  A    between atoms: _207  and  _209
REMARK   90  A    between atoms: _209  and  _210
REMARK   91  A    between atoms: _209  and  _212
REMARK   92  A    between atoms: _212  and  _213
REMARK   93  A    between atoms: _223  and  _225
REMARK   94  A    between atoms: _225  and  _226
REMARK   95  A    between atoms: _228  and  _230
REMARK   96  A    between atoms: _230  and  _231
REMARK   97  A    between atoms: _230  and  _233
REMARK   98  A    between atoms: _233  and  _234
REMARK   99  A    between atoms: _239  and  _241
REMARK  100  A    between atoms: _241  and  _242
REMARK  101  A    between atoms: _244  and  _246
REMARK  102  A    between atoms: _246  and  _247
REMARK  103  A    between atoms: _246  and  _249
REMARK  104  A    between atoms: _249  and  _250
REMARK  105  A    between atoms: _251  and  _253
REMARK  106  A    between atoms: _253  and  _254
REMARK  107  A    between atoms: _257  and  _259
REMARK  108  A    between atoms: _259  and  _260
REMARK  109  A    between atoms: _259  and  _262
REMARK  110  A    between atoms: _262  and  _263
REMARK  111  A    between atoms: _273  and  _275
REMARK  112  A    between atoms: _275  and  _276
REMARK  113  A    between atoms: _275  and  _278
REMARK  114  A    between atoms: _278  and  _279
REMARK  115  A    between atoms: _279  and  _280
REMARK  116  A    between atoms: _280  and  _281
REMARK  117  A    between atoms: _291  and  _292
REMARK  118  A    between atoms: _297  and  _299
REMARK  119  A    between atoms: _299  and  _300
REMARK  120  A    between atoms: _302  and  _304
REMARK  121  A    between atoms: _304  and  _305
REMARK  122  A    between atoms: _304  and  _307
REMARK  123  A    between atoms: _310  and  _312
REMARK  124  A    between atoms: _312  and  _313
REMARK  125  A    between atoms: _312  and  _315
REMARK  126  A    between atoms: _315  and  _316
REMARK  127  A    between atoms: _321  and  _322
REMARK                            x       y       z     vdW  Elec       q    Type
REMARK                         _______ _______ _______ _____ _____    ______ ____
ROOT
ATOM      1  O   HOH     1      51.606  42.189  36.107  0.00  0.00    +0.000 OA
ENDROOT
TORSDOF 0
REMARK  Name = ../refined-set-2016/1h4w/1h4w_pocket.pdb
REMARK  127 active torsions:
REMARK  status: ('A' for Active; 'I' for Inactive)
REMARK    1  A    between atoms: _1  and  _5
REMARK    2  A    between atoms: _5  and  _6
REMARK    3  A    between atoms: _5  and  _8
REMARK    4  A    between atoms: _8  and  _9
REMARK    5  A    between atoms: _12  and  _14
REMARK    6  A    between atoms: _14  and  _15
REMARK    7  A    between atoms: _14  and  _17
REMARK    8  A    between atoms: _20  and  _22
REMARK    9  A    between atoms: _22  and  _23
REMARK   10  A    between atoms: _22  and  _25
REMARK   11  A    between atoms: _25  and  _26
REMARK   12  A    between atoms: _31  and  _33
REMARK   13  A    between atoms: _33  and  _34
REMARK   14  A    between atoms: _33  and  _36
REMARK   15  A    between atoms: _36  and  _37
REMARK   16  A    between atoms: _40  and  _42
REMARK   17  A    between atoms: _42  and  _43
REMARK   18  A    between atoms: _42  and  _45
REMARK   19  A    between atoms: _45  and  _46
REMARK   20  A    between atoms: _49  and  _51
REMARK   21  A    between atoms: _51  and  _52
REMARK   22  A    between atoms: _51  and  _54
REMARK   23  A    between atoms: _54  and  _55
REMARK   24  A    between atoms: _60  and  _62
REMARK   25  A    between atoms: _62  and  _63
REMARK   26  A    between atoms: _62  and  _65
REMARK   27  A    between atoms: _65  and  _66
REMARK   28  A    between atoms: _68  and  _70
REMARK   29  A    between atoms: _70  and  _71
REMARK   30  A    between atoms: _70  and  _73
REMARK   31  A    between atoms: _73  and  _74
REMARK   32  A    between atoms: _79  and  _80
REMARK   33  A    between atoms: _82  and  _84
REMARK   34  A    between atoms: _84  and  _85
REMARK   35  A    between atoms: _84  and  _87
REMARK   36  A    between atoms: _90  and  _92
REMARK   37  A    between atoms: _92  and  _93
REMARK   38  A    between atoms: _92  and  _95
REMARK   39  A    between atoms: _95  and  _96
REMARK   40  A    between atoms: _96  and  _97
REMARK   41  A    between atoms: _97  and  _98
REMARK   42  A    between atoms: _98  and  _99
REMARK   43  A    between atoms: _103  and  _105
REMARK   44  A    between atoms: _105  and  _106
REMARK   45  A    between atoms: _105  and  _108
REMARK   46  A    between atoms: _108  and  _109
REMARK   47  A    between atoms: _112  and  _114
REMARK   48  A    between atoms: _114  and  _115
REMARK   49  A    between atoms: _114  and  _117
REMARK   50  A    between atoms: _117  and  _118
REMARK   51  A    between atoms: _120  and  _122
REMARK   52  A    between atoms: _122  and  _123
REMARK   53  A    between atoms: _122  and  _125
REMARK   54  A    between atoms: _125  and  _126
REMARK   55  A    between atoms: _126  and  _250
REMARK   56  A    between atoms: _127  and  _129
REMARK   57  A    between atoms: _129  and  _130
REMARK   58  A    between atoms: _129  and  _132
REMARK   59  A    between atoms: _132  and  _133
REMARK   60  A    between atoms: _133  and  _134
REMARK   61  A    between atoms: _139  and  _141
REMARK   62  A    between atoms: _141  and  _142
REMARK   63  A    between atoms: _141  and  _144
REMARK   64  A    between atoms: _144  and  _145
REMARK   65  A    between atoms: _145  and  _146
REMARK   66  A    between atoms: _146  and  _147
REMARK   67  A    between atoms: _156  and  _158
REMARK   68  A    between atoms: _158  and  _159
REMARK   69  A    between atoms: _158  and  _161
REMARK   70  A    between atoms: _161  and  _162
REMARK   71  A    between atoms: _165  and  _167
REMARK   72  A    between atoms: _167  and  _168
REMARK   73  A    between atoms: _167  and  _170
REMARK   74  A    between atoms: _170  and  _171
REMARK   75  A    between atoms: _173  and  _175
REMARK   76  A    between atoms: _175  and  _176
REMARK   77  A    between atoms: _178  and  _180
REMARK   78  A    between atoms: _180  and  _181
REMARK   79  A    between atoms: _183  and  _185
REMARK   80  A    between atoms: _185  and  _186
REMARK   81  A    between atoms: _185  and  _188
REMARK   82  A    between atoms: _191  and  _193
REMARK   83  A    between atoms: _193  and  _194
REMARK   84  A    between atoms: _193  and  _196
REMARK   85  A    between atoms: _199  and  _201
REMARK   86  A    between atoms: _201  and  _202
REMARK   87  A    between atoms: _201  and  _204
REMARK   88  A    between atoms: _204  and  _205
REMARK   89  A    between atoms: _207  and  _209
REMARK   90  A    between atoms: _209  and  _210
REMARK   91  A    between atoms: _209  and  _212
REMARK   92  A    between atoms: _212  and  _213
REMARK   93  A    between atoms: _223  and  _225
REMARK   94  A    between atoms: _225  and  _226
REMARK   95  A    between atoms: _228  and  _230
REMARK   96  A    between atoms: _230  and  _231
REMARK   97  A    between atoms: _230  and  _233
REMARK   98  A    between atoms: _233  and  _234
REMARK   99  A    between atoms: _239  and  _241
REMARK  100  A    between atoms: _241  and  _242
REMARK  101  A    between atoms: _244  and  _246
REMARK  102  A    between atoms: _246  and  _247
REMARK  103  A    between atoms: _246  and  _249
REMARK  104  A    between atoms: _249  and  _250
REMARK  105  A    between atoms: _251  and  _253
REMARK  106  A    between atoms: _253  and  _254
REMARK  107  A    between atoms: _257  and  _259
REMARK  108  A    between atoms: _259  and  _260
REMARK  109  A    between atoms: _259  and  _262
REMARK  110  A    between atoms: _262  and  _263
REMARK  111  A    between atoms: _273  and  _275
REMARK  112  A    between atoms: _275  and  _276
REMARK  113  A    between atoms: _275  and  _278
REMARK  114  A    between atoms: _278  and  _279
REMARK  115  A    between atoms: _279  and  _280
REMARK  116  A    between atoms: _280  and  _281
REMARK  117  A    between atoms: _291  and  _292
REMARK  118  A    between atoms: _297  and  _299
REMARK  119  A    between atoms: _299  and  _300
REMARK  120  A    between atoms: _302  and  _304
REMARK  121  A    between atoms: _304  and  _305
REMARK  122  A    between atoms: _304  and  _307
REMARK  123  A    between atoms: _310  and  _312
REMARK  124  A    between atoms: _312  and  _313
REMARK  125  A    between atoms: _312  and  _315
REMARK  126  A    between atoms: _315  and  _316
REMARK  127  A    between atoms: _321  and  _322
REMARK                            x       y       z     vdW  Elec       q    Type
REMARK                         _______ _______ _______ _____ _____    ______ ____
ROOT
ATOM      1  O   HOH     1      53.170  44.371  38.640  0.00  0.00    +0.000 OA
ENDROOT
TORSDOF 0
REMARK  Name = ../refined-set-2016/1h4w/1h4w_pocket.pdb
REMARK  127 active torsions:
REMARK  status: ('A' for Active; 'I' for Inactive)
REMARK    1  A    between atoms: _1  and  _5
REMARK    2  A    between atoms: _5  and  _6
REMARK    3  A    between atoms: _5  and  _8
REMARK    4  A    between atoms: _8  and  _9
REMARK    5  A    between atoms: _12  and  _14
REMARK    6  A    between atoms: _14  and  _15
REMARK    7  A    between atoms: _14  and  _17
REMARK    8  A    between atoms: _20  and  _22
REMARK    9  A    between atoms: _22  and  _23
REMARK   10  A    between atoms: _22  and  _25
REMARK   11  A    between atoms: _25  and  _26
REMARK   12  A    between atoms: _31  and  _33
REMARK   13  A    between atoms: _33  and  _34
REMARK   14  A    between atoms: _33  and  _36
REMARK   15  A    between atoms: _36  and  _37
REMARK   16  A    between atoms: _40  and  _42
REMARK   17  A    between atoms: _42  and  _43
REMARK   18  A    between atoms: _42  and  _45
REMARK   19  A    between atoms: _45  and  _46
REMARK   20  A    between atoms: _49  and  _51
REMARK   21  A    between atoms: _51  and  _52
REMARK   22  A    between atoms: _51  and  _54
REMARK   23  A    between atoms: _54  and  _55
REMARK   24  A    between atoms: _60  and  _62
REMARK   25  A    between atoms: _62  and  _63
REMARK   26  A    between atoms: _62  and  _65
REMARK   27  A    between atoms: _65  and  _66
REMARK   28  A    between atoms: _68  and  _70
REMARK   29  A    between atoms: _70  and  _71
REMARK   30  A    between atoms: _70  and  _73
REMARK   31  A    between atoms: _73  and  _74
REMARK   32  A    between atoms: _79  and  _80
REMARK   33  A    between atoms: _82  and  _84
REMARK   34  A    between atoms: _84  and  _85
REMARK   35  A    between atoms: _84  and  _87
REMARK   36  A    between atoms: _90  and  _92
REMARK   37  A    between atoms: _92  and  _93
REMARK   38  A    between atoms: _92  and  _95
REMARK   39  A    between atoms: _95  and  _96
REMARK   40  A    between atoms: _96  and  _97
REMARK   41  A    between atoms: _97  and  _98
REMARK   42  A    between atoms: _98  and  _99
REMARK   43  A    between atoms: _103  and  _105
REMARK   44  A    between atoms: _105  and  _106
REMARK   45  A    between atoms: _105  and  _108
REMARK   46  A    between atoms: _108  and  _109
REMARK   47  A    between atoms: _112  and  _114
REMARK   48  A    between atoms: _114  and  _115
REMARK   49  A    between atoms: _114  and  _117
REMARK   50  A    between atoms: _117  and  _118
REMARK   51  A    between atoms: _120  and  _122
REMARK   52  A    between atoms: _122  and  _123
REMARK   53  A    between atoms: _122  and  _125
REMARK   54  A    between atoms: _125  and  _126
REMARK   55  A    between atoms: _126  and  _250
REMARK   56  A    between atoms: _127  and  _129
REMARK   57  A    between atoms: _129  and  _130
REMARK   58  A    between atoms: _129  and  _132
REMARK   59  A    between atoms: _132  and  _133
REMARK   60  A    between atoms: _133  and  _134
REMARK   61  A    between atoms: _139  and  _141
REMARK   62  A    between atoms: _141  and  _142
REMARK   63  A    between atoms: _141  and  _144
REMARK   64  A    between atoms: _144  and  _145
REMARK   65  A    between atoms: _145  and  _146
REMARK   66  A    between atoms: _146  and  _147
REMARK   67  A    between atoms: _156  and  _158
REMARK   68  A    between atoms: _158  and  _159
REMARK   69  A    between atoms: _158  and  _161
REMARK   70  A    between atoms: _161  and  _162
REMARK   71  A    between atoms: _165  and  _167
REMARK   72  A    between atoms: _167  and  _168
REMARK   73  A    between atoms: _167  and  _170
REMARK   74  A    between atoms: _170  and  _171
REMARK   75  A    between atoms: _173  and  _175
REMARK   76  A    between atoms: _175  and  _176
REMARK   77  A    between atoms: _178  and  _180
REMARK   78  A    between atoms: _180  and  _181
REMARK   79  A    between atoms: _183  and  _185
REMARK   80  A    between atoms: _185  and  _186
REMARK   81  A    between atoms: _185  and  _188
REMARK   82  A    between atoms: _191  and  _193
REMARK   83  A    between atoms: _193  and  _194
REMARK   84  A    between atoms: _193  and  _196
REMARK   85  A    between atoms: _199  and  _201
REMARK   86  A    between atoms: _201  and  _202
REMARK   87  A    between atoms: _201  and  _204
REMARK   88  A    between atoms: _204  and  _205
REMARK   89  A    between atoms: _207  and  _209
REMARK   90  A    between atoms: _209  and  _210
REMARK   91  A    between atoms: _209  and  _212
REMARK   92  A    between atoms: _212  and  _213
REMARK   93  A    between atoms: _223  and  _225
REMARK   94  A    between atoms: _225  and  _226
REMARK   95  A    between atoms: _228  and  _230
REMARK   96  A    between atoms: _230  and  _231
REMARK   97  A    between atoms: _230  and  _233
REMARK   98  A    between atoms: _233  and  _234
REMARK   99  A    between atoms: _239  and  _241
REMARK  100  A    between atoms: _241  and  _242
REMARK  101  A    between atoms: _244  and  _246
REMARK  102  A    between atoms: _246  and  _247
REMARK  103  A    between atoms: _246  and  _249
REMARK  104  A    between atoms: _249  and  _250
REMARK  105  A    between atoms: _251  and  _253
REMARK  106  A    between atoms: _253  and  _254
REMARK  107  A    between atoms: _257  and  _259
REMARK  108  A    between atoms: _259  and  _260
REMARK  109  A    between atoms: _259  and  _262
REMARK  110  A    between atoms: _262  and  _263
REMARK  111  A    between atoms: _273  and  _275
REMARK  112  A    between atoms: _275  and  _276
REMARK  113  A    between atoms: _275  and  _278
REMARK  114  A    between atoms: _278  and  _279
REMARK  115  A    between atoms: _279  and  _280
REMARK  116  A    between atoms: _280  and  _281
REMARK  117  A    between atoms: _291  and  _292
REMARK  118  A    between atoms: _297  and  _299
REMARK  119  A    between atoms: _299  and  _300
REMARK  120  A    between atoms: _302  and  _304
REMARK  121  A    between atoms: _304  and  _305
REMARK  122  A    between atoms: _304  and  _307
REMARK  123  A    between atoms: _310  and  _312
REMARK  124  A    between atoms: _312  and  _313
REMARK  125  A    between atoms: _312  and  _315
REMARK  126  A    between atoms: _315  and  _316
REMARK  127  A    between atoms: _321  and  _322
REMARK                            x       y       z     vdW  Elec       q    Type
REMARK                         _______ _______ _______ _____ _____    ______ ____
ROOT
ATOM      1  O   HOH     1      49.214  37.798  43.168  0.00  0.00    +0.000 OA
ENDROOT
TORSDOF 0
REMARK  Name = ../refined-set-2016/1h4w/1h4w_pocket.pdb
REMARK  127 active torsions:
REMARK  status: ('A' for Active; 'I' for Inactive)
REMARK    1  A    between atoms: _1  and  _5
REMARK    2  A    between atoms: _5  and  _6
REMARK    3  A    between atoms: _5  and  _8
REMARK    4  A    between atoms: _8  and  _9
REMARK    5  A    between atoms: _12  and  _14
REMARK    6  A    between atoms: _14  and  _15
REMARK    7  A    between atoms: _14  and  _17
REMARK    8  A    between atoms: _20  and  _22
REMARK    9  A    between atoms: _22  and  _23
REMARK   10  A    between atoms: _22  and  _25
REMARK   11  A    between atoms: _25  and  _26
REMARK   12  A    between atoms: _31  and  _33
REMARK   13  A    between atoms: _33  and  _34
REMARK   14  A    between atoms: _33  and  _36
REMARK   15  A    between atoms: _36  and  _37
REMARK   16  A    between atoms: _40  and  _42
REMARK   17  A    between atoms: _42  and  _43
REMARK   18  A    between atoms: _42  and  _45
REMARK   19  A    between atoms: _45  and  _46
REMARK   20  A    between atoms: _49  and  _51
REMARK   21  A    between atoms: _51  and  _52
REMARK   22  A    between atoms: _51  and  _54
REMARK   23  A    between atoms: _54  and  _55
REMARK   24  A    between atoms: _60  and  _62
REMARK   25  A    between atoms: _62  and  _63
REMARK   26  A    between atoms: _62  and  _65
REMARK   27  A    between atoms: _65  and  _66
REMARK   28  A    between atoms: _68  and  _70
REMARK   29  A    between atoms: _70  and  _71
REMARK   30  A    between atoms: _70  and  _73
REMARK   31  A    between atoms: _73  and  _74
REMARK   32  A    between atoms: _79  and  _80
REMARK   33  A    between atoms: _82  and  _84
REMARK   34  A    between atoms: _84  and  _85
REMARK   35  A    between atoms: _84  and  _87
REMARK   36  A    between atoms: _90  and  _92
REMARK   37  A    between atoms: _92  and  _93
REMARK   38  A    between atoms: _92  and  _95
REMARK   39  A    between atoms: _95  and  _96
REMARK   40  A    between atoms: _96  and  _97
REMARK   41  A    between atoms: _97  and  _98
REMARK   42  A    between atoms: _98  and  _99
REMARK   43  A    between atoms: _103  and  _105
REMARK   44  A    between atoms: _105  and  _106
REMARK   45  A    between atoms: _105  and  _108
REMARK   46  A    between atoms: _108  and  _109
REMARK   47  A    between atoms: _112  and  _114
REMARK   48  A    between atoms: _114  and  _115
REMARK   49  A    between atoms: _114  and  _117
REMARK   50  A    between atoms: _117  and  _118
REMARK   51  A    between atoms: _120  and  _122
REMARK   52  A    between atoms: _122  and  _123
REMARK   53  A    between atoms: _122  and  _125
REMARK   54  A    between atoms: _125  and  _126
REMARK   55  A    between atoms: _126  and  _250
REMARK   56  A    between atoms: _127  and  _129
REMARK   57  A    between atoms: _129  and  _130
REMARK   58  A    between atoms: _129  and  _132
REMARK   59  A    between atoms: _132  and  _133
REMARK   60  A    between atoms: _133  and  _134
REMARK   61  A    between atoms: _139  and  _141
REMARK   62  A    between atoms: _141  and  _142
REMARK   63  A    between atoms: _141  and  _144
REMARK   64  A    between atoms: _144  and  _145
REMARK   65  A    between atoms: _145  and  _146
REMARK   66  A    between atoms: _146  and  _147
REMARK   67  A    between atoms: _156  and  _158
REMARK   68  A    between atoms: _158  and  _159
REMARK   69  A    between atoms: _158  and  _161
REMARK   70  A    between atoms: _161  and  _162
REMARK   71  A    between atoms: _165  and  _167
REMARK   72  A    between atoms: _167  and  _168
REMARK   73  A    between atoms: _167  and  _170
REMARK   74  A    between atoms: _170  and  _171
REMARK   75  A    between atoms: _173  and  _175
REMARK   76  A    between atoms: _175  and  _176
REMARK   77  A    between atoms: _178  and  _180
REMARK   78  A    between atoms: _180  and  _181
REMARK   79  A    between atoms: _183  and  _185
REMARK   80  A    between atoms: _185  and  _186
REMARK   81  A    between atoms: _185  and  _188
REMARK   82  A    between atoms: _191  and  _193
REMARK   83  A    between atoms: _193  and  _194
REMARK   84  A    between atoms: _193  and  _196
REMARK   85  A    between atoms: _199  and  _201
REMARK   86  A    between atoms: _201  and  _202
REMARK   87  A    between atoms: _201  and  _204
REMARK   88  A    between atoms: _204  and  _205
REMARK   89  A    between atoms: _207  and  _209
REMARK   90  A    between atoms: _209  and  _210
REMARK   91  A    between atoms: _209  and  _212
REMARK   92  A    between atoms: _212  and  _213
REMARK   93  A    between atoms: _223  and  _225
REMARK   94  A    between atoms: _225  and  _226
REMARK   95  A    between atoms: _228  and  _230
REMARK   96  A    between atoms: _230  and  _231
REMARK   97  A    between atoms: _230  and  _233
REMARK   98  A    between atoms: _233  and  _234
REMARK   99  A    between atoms: _239  and  _241
REMARK  100  A    between atoms: _241  and  _242
REMARK  101  A    between atoms: _244  and  _246
REMARK  102  A    between atoms: _246  and  _247
REMARK  103  A    between atoms: _246  and  _249
REMARK  104  A    between atoms: _249  and  _250
REMARK  105  A    between atoms: _251  and  _253
REMARK  106  A    between atoms: _253  and  _254
REMARK  107  A    between atoms: _257  and  _259
REMARK  108  A    between atoms: _259  and  _260
REMARK  109  A    between atoms: _259  and  _262
REMARK  110  A    between atoms: _262  and  _263
REMARK  111  A    between atoms: _273  and  _275
REMARK  112  A    between atoms: _275  and  _276
REMARK  113  A    between atoms: _275  and  _278
REMARK  114  A    between atoms: _278  and  _279
REMARK  115  A    between atoms: _279  and  _280
REMARK  116  A    between atoms: _280  and  _281
REMARK  117  A    between atoms: _291  and  _292
REMARK  118  A    between atoms: _297  and  _299
REMARK  119  A    between atoms: _299  and  _300
REMARK  120  A    between atoms: _302  and  _304
REMARK  121  A    between atoms: _304  and  _305
REMARK  122  A    between atoms: _304  and  _307
REMARK  123  A    between atoms: _310  and  _312
REMARK  124  A    between atoms: _312  and  _313
REMARK  125  A    between atoms: _312  and  _315
REMARK  126  A    between atoms: _315  and  _316
REMARK  127  A    between atoms: _321  and  _322
REMARK                            x       y       z     vdW  Elec       q    Type
REMARK                         _______ _______ _______ _____ _____    ______ ____
ROOT
ATOM      1  O   HOH     1      52.661  41.660  43.835  0.00  0.00    +0.000 OA
ENDROOT
TORSDOF 0
