REMARK  Name = ../refined-set-2016/4pnu/4pnu_pocket.pdb
REMARK  112 active torsions:
REMARK  status: ('A' for Active; 'I' for Inactive)
REMARK    1  A    between atoms: _1  and  _3
REMARK    2  A    between atoms: _3  and  _4
REMARK    3  A    between atoms: _3  and  _6
REMARK    4  A    between atoms: _6  and  _7
REMARK    5  A    between atoms: _9  and  _11
REMARK    6  A    between atoms: _11  and  _12
REMARK    7  A    between atoms: _11  and  _14
REMARK    8  A    between atoms: _14  and  _15
REMARK    9  A    between atoms: _18  and  _20
REMARK   10  A    between atoms: _20  and  _21
REMARK   11  A    between atoms: _20  and  _23
REMARK   12  A    between atoms: _23  and  _24
REMARK   13  A    between atoms: _24  and  _25
REMARK   14  A    between atoms: _25  and  _26
REMARK   15  A    between atoms: _35  and  _37
REMARK   16  A    between atoms: _37  and  _38
REMARK   17  A    between atoms: _37  and  _40
REMARK   18  A    between atoms: _40  and  _41
REMARK   19  A    between atoms: _46  and  _47
REMARK   20  A    between atoms: _49  and  _51
REMARK   21  A    between atoms: _51  and  _52
REMARK   22  A    between atoms: _51  and  _54
REMARK   23  A    between atoms: _54  and  _55
REMARK   24  A    between atoms: _58  and  _60
REMARK   25  A    between atoms: _60  and  _61
REMARK   26  A    between atoms: _64  and  _66
REMARK   27  A    between atoms: _66  and  _67
REMARK   28  A    between atoms: _66  and  _69
REMARK   29  A    between atoms: _69  and  _70
REMARK   30  A    between atoms: _73  and  _75
REMARK   31  A    between atoms: _75  and  _76
REMARK   32  A    between atoms: _75  and  _78
REMARK   33  A    between atoms: _78  and  _79
REMARK   34  A    between atoms: _82  and  _84
REMARK   35  A    between atoms: _84  and  _85
REMARK   36  A    between atoms: _87  and  _89
REMARK   37  A    between atoms: _89  and  _90
REMARK   38  A    between atoms: _89  and  _92
REMARK   39  A    between atoms: _92  and  _93
REMARK   40  A    between atoms: _98  and  _100
REMARK   41  A    between atoms: _100  and  _101
REMARK   42  A    between atoms: _100  and  _103
REMARK   43  A    between atoms: _103  and  _104
REMARK   44  A    between atoms: _104  and  _105
REMARK   45  A    between atoms: _105  and  _106
REMARK   46  A    between atoms: _115  and  _117
REMARK   47  A    between atoms: _117  and  _118
REMARK   48  A    between atoms: _117  and  _120
REMARK   49  A    between atoms: _120  and  _121
REMARK   50  A    between atoms: _124  and  _126
REMARK   51  A    between atoms: _126  and  _127
REMARK   52  A    between atoms: _130  and  _132
REMARK   53  A    between atoms: _132  and  _133
REMARK   54  A    between atoms: _132  and  _135
REMARK   55  A    between atoms: _135  and  _136
REMARK   56  A    between atoms: _136  and  _137
REMARK   57  A    between atoms: _137  and  _138
REMARK   58  A    between atoms: _147  and  _149
REMARK   59  A    between atoms: _149  and  _150
REMARK   60  A    between atoms: _149  and  _152
REMARK   61  A    between atoms: _152  and  _153
REMARK   62  A    between atoms: _160  and  _161
REMARK   63  A    between atoms: _166  and  _168
REMARK   64  A    between atoms: _168  and  _169
REMARK   65  A    between atoms: _168  and  _171
REMARK   66  A    between atoms: _171  and  _172
REMARK   67  A    between atoms: _175  and  _177
REMARK   68  A    between atoms: _177  and  _178
REMARK   69  A    between atoms: _177  and  _180
REMARK   70  A    between atoms: _180  and  _181
REMARK   71  A    between atoms: _181  and  _182
REMARK   72  A    between atoms: _182  and  _183
REMARK   73  A    between atoms: _192  and  _194
REMARK   74  A    between atoms: _194  and  _195
REMARK   75  A    between atoms: _194  and  _197
REMARK   76  A    between atoms: _200  and  _202
REMARK   77  A    between atoms: _202  and  _203
REMARK   78  A    between atoms: _202  and  _205
REMARK   79  A    between atoms: _205  and  _206
REMARK   80  A    between atoms: _210  and  _211
REMARK   81  A    between atoms: _216  and  _218
REMARK   82  A    between atoms: _218  and  _219
REMARK   83  A    between atoms: _218  and  _221
REMARK   84  A    between atoms: _221  and  _222
REMARK   85  A    between atoms: _227  and  _228
REMARK   86  A    between atoms: _230  and  _232
REMARK   87  A    between atoms: _232  and  _233
REMARK   88  A    between atoms: _232  and  _235
REMARK   89  A    between atoms: _238  and  _240
REMARK   90  A    between atoms: _240  and  _241
REMARK   91  A    between atoms: _240  and  _243
REMARK   92  A    between atoms: _243  and  _244
REMARK   93  A    between atoms: _246  and  _248
REMARK   94  A    between atoms: _248  and  _249
REMARK   95  A    between atoms: _248  and  _251
REMARK   96  A    between atoms: _254  and  _256
REMARK   97  A    between atoms: _256  and  _257
REMARK   98  A    between atoms: _256  and  _259
REMARK   99  A    between atoms: _259  and  _260
REMARK  100  A    between atoms: _265  and  _266
REMARK  101  A    between atoms: _268  and  _270
REMARK  102  A    between atoms: _270  and  _271
REMARK  103  A    between atoms: _270  and  _273
REMARK  104  A    between atoms: _276  and  _278
REMARK  105  A    between atoms: _278  and  _279
REMARK  106  A    between atoms: _278  and  _281
REMARK  107  A    between atoms: _284  and  _286
REMARK  108  A    between atoms: _286  and  _287
REMARK  109  A    between atoms: _286  and  _289
REMARK  110  A    between atoms: _289  and  _290
REMARK  111  A    between atoms: _290  and  _291
REMARK  112  A    between atoms: _294  and  _295
REMARK                            x       y       z     vdW  Elec       q    Type
REMARK                         _______ _______ _______ _____ _____    ______ ____
ROOT
ATOM      1  CA  SER A   1       7.382  -0.330  -0.511  0.00  0.00    +0.163 C 
ENDROOT
BRANCH   1   2
ATOM      2  N   SER A   1       7.360   0.419   0.752  0.00  0.00    -0.237 NA
ATOM      3  H   SER A   1       8.076   1.154   0.921  0.00  0.00    +0.142 HD
ENDBRANCH   1   2
BRANCH   1   4
ATOM      4  CB  SER A   1       8.333  -1.532  -0.494  0.00  0.00    +0.227 C 
ATOM      5  OG  SER A   1       8.404  -2.259  -1.484  0.00  0.00    -0.287 OA
ENDBRANCH   1   4
BRANCH   1   6
ATOM      6  C   SER A   1       7.721   0.584  -1.683  0.00  0.00    +0.162 C 
BRANCH   6   7
ATOM      7  O   SER A   1       6.679   1.518  -1.923  0.00  0.00    -0.380 OA
ATOM      8  H   SER A   1       6.926   2.097  -2.687  0.00  0.00    +0.211 HD
ENDBRANCH   6   7
ENDBRANCH   1   6
TORSDOF 4
REMARK  Name = ../refined-set-2016/4pnu/4pnu_pocket.pdb
REMARK  112 active torsions:
REMARK  status: ('A' for Active; 'I' for Inactive)
REMARK    1  A    between atoms: _1  and  _3
REMARK    2  A    between atoms: _3  and  _4
REMARK    3  A    between atoms: _3  and  _6
REMARK    4  A    between atoms: _6  and  _7
REMARK    5  A    between atoms: _9  and  _11
REMARK    6  A    between atoms: _11  and  _12
REMARK    7  A    between atoms: _11  and  _14
REMARK    8  A    between atoms: _14  and  _15
REMARK    9  A    between atoms: _18  and  _20
REMARK   10  A    between atoms: _20  and  _21
REMARK   11  A    between atoms: _20  and  _23
REMARK   12  A    between atoms: _23  and  _24
REMARK   13  A    between atoms: _24  and  _25
REMARK   14  A    between atoms: _25  and  _26
REMARK   15  A    between atoms: _35  and  _37
REMARK   16  A    between atoms: _37  and  _38
REMARK   17  A    between atoms: _37  and  _40
REMARK   18  A    between atoms: _40  and  _41
REMARK   19  A    between atoms: _46  and  _47
REMARK   20  A    between atoms: _49  and  _51
REMARK   21  A    between atoms: _51  and  _52
REMARK   22  A    between atoms: _51  and  _54
REMARK   23  A    between atoms: _54  and  _55
REMARK   24  A    between atoms: _58  and  _60
REMARK   25  A    between atoms: _60  and  _61
REMARK   26  A    between atoms: _64  and  _66
REMARK   27  A    between atoms: _66  and  _67
REMARK   28  A    between atoms: _66  and  _69
REMARK   29  A    between atoms: _69  and  _70
REMARK   30  A    between atoms: _73  and  _75
REMARK   31  A    between atoms: _75  and  _76
REMARK   32  A    between atoms: _75  and  _78
REMARK   33  A    between atoms: _78  and  _79
REMARK   34  A    between atoms: _82  and  _84
REMARK   35  A    between atoms: _84  and  _85
REMARK   36  A    between atoms: _87  and  _89
REMARK   37  A    between atoms: _89  and  _90
REMARK   38  A    between atoms: _89  and  _92
REMARK   39  A    between atoms: _92  and  _93
REMARK   40  A    between atoms: _98  and  _100
REMARK   41  A    between atoms: _100  and  _101
REMARK   42  A    between atoms: _100  and  _103
REMARK   43  A    between atoms: _103  and  _104
REMARK   44  A    between atoms: _104  and  _105
REMARK   45  A    between atoms: _105  and  _106
REMARK   46  A    between atoms: _115  and  _117
REMARK   47  A    between atoms: _117  and  _118
REMARK   48  A    between atoms: _117  and  _120
REMARK   49  A    between atoms: _120  and  _121
REMARK   50  A    between atoms: _124  and  _126
REMARK   51  A    between atoms: _126  and  _127
REMARK   52  A    between atoms: _130  and  _132
REMARK   53  A    between atoms: _132  and  _133
REMARK   54  A    between atoms: _132  and  _135
REMARK   55  A    between atoms: _135  and  _136
REMARK   56  A    between atoms: _136  and  _137
REMARK   57  A    between atoms: _137  and  _138
REMARK   58  A    between atoms: _147  and  _149
REMARK   59  A    between atoms: _149  and  _150
REMARK   60  A    between atoms: _149  and  _152
REMARK   61  A    between atoms: _152  and  _153
REMARK   62  A    between atoms: _160  and  _161
REMARK   63  A    between atoms: _166  and  _168
REMARK   64  A    between atoms: _168  and  _169
REMARK   65  A    between atoms: _168  and  _171
REMARK   66  A    between atoms: _171  and  _172
REMARK   67  A    between atoms: _175  and  _177
REMARK   68  A    between atoms: _177  and  _178
REMARK   69  A    between atoms: _177  and  _180
REMARK   70  A    between atoms: _180  and  _181
REMARK   71  A    between atoms: _181  and  _182
REMARK   72  A    between atoms: _182  and  _183
REMARK   73  A    between atoms: _192  and  _194
REMARK   74  A    between atoms: _194  and  _195
REMARK   75  A    between atoms: _194  and  _197
REMARK   76  A    between atoms: _200  and  _202
REMARK   77  A    between atoms: _202  and  _203
REMARK   78  A    between atoms: _202  and  _205
REMARK   79  A    between atoms: _205  and  _206
REMARK   80  A    between atoms: _210  and  _211
REMARK   81  A    between atoms: _216  and  _218
REMARK   82  A    between atoms: _218  and  _219
REMARK   83  A    between atoms: _218  and  _221
REMARK   84  A    between atoms: _221  and  _222
REMARK   85  A    between atoms: _227  and  _228
REMARK   86  A    between atoms: _230  and  _232
REMARK   87  A    between atoms: _232  and  _233
REMARK   88  A    between atoms: _232  and  _235
REMARK   89  A    between atoms: _238  and  _240
REMARK   90  A    between atoms: _240  and  _241
REMARK   91  A    between atoms: _240  and  _243
REMARK   92  A    between atoms: _243  and  _244
REMARK   93  A    between atoms: _246  and  _248
REMARK   94  A    between atoms: _248  and  _249
REMARK   95  A    between atoms: _248  and  _251
REMARK   96  A    between atoms: _254  and  _256
REMARK   97  A    between atoms: _256  and  _257
REMARK   98  A    between atoms: _256  and  _259
REMARK   99  A    between atoms: _259  and  _260
REMARK  100  A    between atoms: _265  and  _266
REMARK  101  A    between atoms: _268  and  _270
REMARK  102  A    between atoms: _270  and  _271
REMARK  103  A    between atoms: _270  and  _273
REMARK  104  A    between atoms: _276  and  _278
REMARK  105  A    between atoms: _278  and  _279
REMARK  106  A    between atoms: _278  and  _281
REMARK  107  A    between atoms: _284  and  _286
REMARK  108  A    between atoms: _286  and  _287
REMARK  109  A    between atoms: _286  and  _289
REMARK  110  A    between atoms: _289  and  _290
REMARK  111  A    between atoms: _290  and  _291
REMARK  112  A    between atoms: _294  and  _295
REMARK                            x       y       z     vdW  Elec       q    Type
REMARK                         _______ _______ _______ _____ _____    ______ ____
ROOT
ATOM      1  CA  ASP A   1       9.429 -12.411  -0.503  0.00  0.00    +0.144 C 
ENDROOT
BRANCH   1   2
ATOM      2  N   ASP A   1       9.323 -11.922   0.869  0.00  0.00    -0.239 NA
ATOM      3  H   ASP A   1       9.558 -10.929   1.072  0.00  0.00    +0.142 HD
ENDBRANCH   1   2
BRANCH   1   4
ATOM      4  C   ASP A   1      10.572 -13.411  -0.593  0.00  0.00    +0.225 C 
ATOM      5  O   ASP A   1      11.615 -13.232   0.061  0.00  0.00    -0.287 OA
ENDBRANCH   1   4
BRANCH   1   6
ATOM      6  CB  ASP A   1       9.686 -11.250  -1.469  0.00  0.00    +0.139 C 
BRANCH   6   7
ATOM      7  CG  ASP A   1       9.260 -11.570  -2.902  0.00  0.00    +0.367 C 
ATOM      8  OD2 ASP A   1       8.200 -11.074  -3.326  0.00  0.00    -0.246 OA
ATOM      9  OD1 ASP A   1       9.980 -12.304  -3.607  0.00  0.00    -0.246 OA
ENDBRANCH   6   7
ENDBRANCH   1   6
TORSDOF 4
REMARK  Name = ../refined-set-2016/4pnu/4pnu_pocket.pdb
REMARK  112 active torsions:
REMARK  status: ('A' for Active; 'I' for Inactive)
REMARK    1  A    between atoms: _1  and  _3
REMARK    2  A    between atoms: _3  and  _4
REMARK    3  A    between atoms: _3  and  _6
REMARK    4  A    between atoms: _6  and  _7
REMARK    5  A    between atoms: _9  and  _11
REMARK    6  A    between atoms: _11  and  _12
REMARK    7  A    between atoms: _11  and  _14
REMARK    8  A    between atoms: _14  and  _15
REMARK    9  A    between atoms: _18  and  _20
REMARK   10  A    between atoms: _20  and  _21
REMARK   11  A    between atoms: _20  and  _23
REMARK   12  A    between atoms: _23  and  _24
REMARK   13  A    between atoms: _24  and  _25
REMARK   14  A    between atoms: _25  and  _26
REMARK   15  A    between atoms: _35  and  _37
REMARK   16  A    between atoms: _37  and  _38
REMARK   17  A    between atoms: _37  and  _40
REMARK   18  A    between atoms: _40  and  _41
REMARK   19  A    between atoms: _46  and  _47
REMARK   20  A    between atoms: _49  and  _51
REMARK   21  A    between atoms: _51  and  _52
REMARK   22  A    between atoms: _51  and  _54
REMARK   23  A    between atoms: _54  and  _55
REMARK   24  A    between atoms: _58  and  _60
REMARK   25  A    between atoms: _60  and  _61
REMARK   26  A    between atoms: _64  and  _66
REMARK   27  A    between atoms: _66  and  _67
REMARK   28  A    between atoms: _66  and  _69
REMARK   29  A    between atoms: _69  and  _70
REMARK   30  A    between atoms: _73  and  _75
REMARK   31  A    between atoms: _75  and  _76
REMARK   32  A    between atoms: _75  and  _78
REMARK   33  A    between atoms: _78  and  _79
REMARK   34  A    between atoms: _82  and  _84
REMARK   35  A    between atoms: _84  and  _85
REMARK   36  A    between atoms: _87  and  _89
REMARK   37  A    between atoms: _89  and  _90
REMARK   38  A    between atoms: _89  and  _92
REMARK   39  A    between atoms: _92  and  _93
REMARK   40  A    between atoms: _98  and  _100
REMARK   41  A    between atoms: _100  and  _101
REMARK   42  A    between atoms: _100  and  _103
REMARK   43  A    between atoms: _103  and  _104
REMARK   44  A    between atoms: _104  and  _105
REMARK   45  A    between atoms: _105  and  _106
REMARK   46  A    between atoms: _115  and  _117
REMARK   47  A    between atoms: _117  and  _118
REMARK   48  A    between atoms: _117  and  _120
REMARK   49  A    between atoms: _120  and  _121
REMARK   50  A    between atoms: _124  and  _126
REMARK   51  A    between atoms: _126  and  _127
REMARK   52  A    between atoms: _130  and  _132
REMARK   53  A    between atoms: _132  and  _133
REMARK   54  A    between atoms: _132  and  _135
REMARK   55  A    between atoms: _135  and  _136
REMARK   56  A    between atoms: _136  and  _137
REMARK   57  A    between atoms: _137  and  _138
REMARK   58  A    between atoms: _147  and  _149
REMARK   59  A    between atoms: _149  and  _150
REMARK   60  A    between atoms: _149  and  _152
REMARK   61  A    between atoms: _152  and  _153
REMARK   62  A    between atoms: _160  and  _161
REMARK   63  A    between atoms: _166  and  _168
REMARK   64  A    between atoms: _168  and  _169
REMARK   65  A    between atoms: _168  and  _171
REMARK   66  A    between atoms: _171  and  _172
REMARK   67  A    between atoms: _175  and  _177
REMARK   68  A    between atoms: _177  and  _178
REMARK   69  A    between atoms: _177  and  _180
REMARK   70  A    between atoms: _180  and  _181
REMARK   71  A    between atoms: _181  and  _182
REMARK   72  A    between atoms: _182  and  _183
REMARK   73  A    between atoms: _192  and  _194
REMARK   74  A    between atoms: _194  and  _195
REMARK   75  A    between atoms: _194  and  _197
REMARK   76  A    between atoms: _200  and  _202
REMARK   77  A    between atoms: _202  and  _203
REMARK   78  A    between atoms: _202  and  _205
REMARK   79  A    between atoms: _205  and  _206
REMARK   80  A    between atoms: _210  and  _211
REMARK   81  A    between atoms: _216  and  _218
REMARK   82  A    between atoms: _218  and  _219
REMARK   83  A    between atoms: _218  and  _221
REMARK   84  A    between atoms: _221  and  _222
REMARK   85  A    between atoms: _227  and  _228
REMARK   86  A    between atoms: _230  and  _232
REMARK   87  A    between atoms: _232  and  _233
REMARK   88  A    between atoms: _232  and  _235
REMARK   89  A    between atoms: _238  and  _240
REMARK   90  A    between atoms: _240  and  _241
REMARK   91  A    between atoms: _240  and  _243
REMARK   92  A    between atoms: _243  and  _244
REMARK   93  A    between atoms: _246  and  _248
REMARK   94  A    between atoms: _248  and  _249
REMARK   95  A    between atoms: _248  and  _251
REMARK   96  A    between atoms: _254  and  _256
REMARK   97  A    between atoms: _256  and  _257
REMARK   98  A    between atoms: _256  and  _259
REMARK   99  A    between atoms: _259  and  _260
REMARK  100  A    between atoms: _265  and  _266
REMARK  101  A    between atoms: _268  and  _270
REMARK  102  A    between atoms: _270  and  _271
REMARK  103  A    between atoms: _270  and  _273
REMARK  104  A    between atoms: _276  and  _278
REMARK  105  A    between atoms: _278  and  _279
REMARK  106  A    between atoms: _278  and  _281
REMARK  107  A    between atoms: _284  and  _286
REMARK  108  A    between atoms: _286  and  _287
REMARK  109  A    between atoms: _286  and  _289
REMARK  110  A    between atoms: _289  and  _290
REMARK  111  A    between atoms: _290  and  _291
REMARK  112  A    between atoms: _294  and  _295
REMARK                            x       y       z     vdW  Elec       q    Type
REMARK                         _______ _______ _______ _____ _____    ______ ____
ROOT
ATOM      1  NE  ARG A   1      10.574 -11.459  -6.216  0.00  0.00    -0.265 N 
ATOM      2  HE  ARG A   1      10.412 -11.719  -5.222  0.00  0.00    +0.259 HD
ATOM      3  CZ  ARG A   1       9.609 -10.794  -6.850  0.00  0.00    +0.342 C 
ATOM      4  NH2 ARG A   1       8.494 -10.490  -6.204  0.00  0.00    -0.292 N 
ATOM      5 HH21 ARG A   1       8.376 -10.770  -5.209  0.00  0.00    +0.255 HD
ATOM      6 HH22 ARG A   1       7.736  -9.971  -6.691  0.00  0.00    +0.255 HD
ATOM      7  NH1 ARG A   1       9.741 -10.443  -8.125  0.00  0.00    -0.292 N 
ATOM      8 HH11 ARG A   1       8.977  -9.924  -8.603  0.00  0.00    +0.255 HD
ATOM      9 HH12 ARG A   1      10.608 -10.687  -8.644  0.00  0.00    +0.255 HD
ENDROOT
BRANCH   1  10
ATOM     10  CD  ARG A   1      11.845 -11.848  -6.823  0.00  0.00    +0.174 C 
BRANCH  10  11
ATOM     11  CG  ARG A   1      12.706 -12.666  -5.870  0.00  0.00    +0.045 C 
BRANCH  11  12
ATOM     12  CB  ARG A   1      13.051 -11.890  -4.616  0.00  0.00    +0.029 C 
BRANCH  12  13
ATOM     13  CA  ARG A   1      13.509 -12.778  -3.471  0.00  0.00    +0.133 C 
BRANCH  13  14
ATOM     14  N   ARG A   1      12.416 -13.612  -2.991  0.00  0.00    -0.239 NA
ATOM     15  H   ARG A   1      11.435 -13.290  -3.118  0.00  0.00    +0.142 HD
ENDBRANCH  13  14
BRANCH  13  16
ATOM     16  C   ARG A   1      14.005 -11.955  -2.286  0.00  0.00    +0.224 C 
ATOM     17  O   ARG A   1      13.487 -10.867  -2.007  0.00  0.00    -0.287 OA
ENDBRANCH  13  16
ENDBRANCH  12  13
ENDBRANCH  11  12
ENDBRANCH  10  11
ENDBRANCH   1  10
TORSDOF 6
REMARK  Name = ../refined-set-2016/4pnu/4pnu_pocket.pdb
REMARK  112 active torsions:
REMARK  status: ('A' for Active; 'I' for Inactive)
REMARK    1  A    between atoms: _1  and  _3
REMARK    2  A    between atoms: _3  and  _4
REMARK    3  A    between atoms: _3  and  _6
REMARK    4  A    between atoms: _6  and  _7
REMARK    5  A    between atoms: _9  and  _11
REMARK    6  A    between atoms: _11  and  _12
REMARK    7  A    between atoms: _11  and  _14
REMARK    8  A    between atoms: _14  and  _15
REMARK    9  A    between atoms: _18  and  _20
REMARK   10  A    between atoms: _20  and  _21
REMARK   11  A    between atoms: _20  and  _23
REMARK   12  A    between atoms: _23  and  _24
REMARK   13  A    between atoms: _24  and  _25
REMARK   14  A    between atoms: _25  and  _26
REMARK   15  A    between atoms: _35  and  _37
REMARK   16  A    between atoms: _37  and  _38
REMARK   17  A    between atoms: _37  and  _40
REMARK   18  A    between atoms: _40  and  _41
REMARK   19  A    between atoms: _46  and  _47
REMARK   20  A    between atoms: _49  and  _51
REMARK   21  A    between atoms: _51  and  _52
REMARK   22  A    between atoms: _51  and  _54
REMARK   23  A    between atoms: _54  and  _55
REMARK   24  A    between atoms: _58  and  _60
REMARK   25  A    between atoms: _60  and  _61
REMARK   26  A    between atoms: _64  and  _66
REMARK   27  A    between atoms: _66  and  _67
REMARK   28  A    between atoms: _66  and  _69
REMARK   29  A    between atoms: _69  and  _70
REMARK   30  A    between atoms: _73  and  _75
REMARK   31  A    between atoms: _75  and  _76
REMARK   32  A    between atoms: _75  and  _78
REMARK   33  A    between atoms: _78  and  _79
REMARK   34  A    between atoms: _82  and  _84
REMARK   35  A    between atoms: _84  and  _85
REMARK   36  A    between atoms: _87  and  _89
REMARK   37  A    between atoms: _89  and  _90
REMARK   38  A    between atoms: _89  and  _92
REMARK   39  A    between atoms: _92  and  _93
REMARK   40  A    between atoms: _98  and  _100
REMARK   41  A    between atoms: _100  and  _101
REMARK   42  A    between atoms: _100  and  _103
REMARK   43  A    between atoms: _103  and  _104
REMARK   44  A    between atoms: _104  and  _105
REMARK   45  A    between atoms: _105  and  _106
REMARK   46  A    between atoms: _115  and  _117
REMARK   47  A    between atoms: _117  and  _118
REMARK   48  A    between atoms: _117  and  _120
REMARK   49  A    between atoms: _120  and  _121
REMARK   50  A    between atoms: _124  and  _126
REMARK   51  A    between atoms: _126  and  _127
REMARK   52  A    between atoms: _130  and  _132
REMARK   53  A    between atoms: _132  and  _133
REMARK   54  A    between atoms: _132  and  _135
REMARK   55  A    between atoms: _135  and  _136
REMARK   56  A    between atoms: _136  and  _137
REMARK   57  A    between atoms: _137  and  _138
REMARK   58  A    between atoms: _147  and  _149
REMARK   59  A    between atoms: _149  and  _150
REMARK   60  A    between atoms: _149  and  _152
REMARK   61  A    between atoms: _152  and  _153
REMARK   62  A    between atoms: _160  and  _161
REMARK   63  A    between atoms: _166  and  _168
REMARK   64  A    between atoms: _168  and  _169
REMARK   65  A    between atoms: _168  and  _171
REMARK   66  A    between atoms: _171  and  _172
REMARK   67  A    between atoms: _175  and  _177
REMARK   68  A    between atoms: _177  and  _178
REMARK   69  A    between atoms: _177  and  _180
REMARK   70  A    between atoms: _180  and  _181
REMARK   71  A    between atoms: _181  and  _182
REMARK   72  A    between atoms: _182  and  _183
REMARK   73  A    between atoms: _192  and  _194
REMARK   74  A    between atoms: _194  and  _195
REMARK   75  A    between atoms: _194  and  _197
REMARK   76  A    between atoms: _200  and  _202
REMARK   77  A    between atoms: _202  and  _203
REMARK   78  A    between atoms: _202  and  _205
REMARK   79  A    between atoms: _205  and  _206
REMARK   80  A    between atoms: _210  and  _211
REMARK   81  A    between atoms: _216  and  _218
REMARK   82  A    between atoms: _218  and  _219
REMARK   83  A    between atoms: _218  and  _221
REMARK   84  A    between atoms: _221  and  _222
REMARK   85  A    between atoms: _227  and  _228
REMARK   86  A    between atoms: _230  and  _232
REMARK   87  A    between atoms: _232  and  _233
REMARK   88  A    between atoms: _232  and  _235
REMARK   89  A    between atoms: _238  and  _240
REMARK   90  A    between atoms: _240  and  _241
REMARK   91  A    between atoms: _240  and  _243
REMARK   92  A    between atoms: _243  and  _244
REMARK   93  A    between atoms: _246  and  _248
REMARK   94  A    between atoms: _248  and  _249
REMARK   95  A    between atoms: _248  and  _251
REMARK   96  A    between atoms: _254  and  _256
REMARK   97  A    between atoms: _256  and  _257
REMARK   98  A    between atoms: _256  and  _259
REMARK   99  A    between atoms: _259  and  _260
REMARK  100  A    between atoms: _265  and  _266
REMARK  101  A    between atoms: _268  and  _270
REMARK  102  A    between atoms: _270  and  _271
REMARK  103  A    between atoms: _270  and  _273
REMARK  104  A    between atoms: _276  and  _278
REMARK  105  A    between atoms: _278  and  _279
REMARK  106  A    between atoms: _278  and  _281
REMARK  107  A    between atoms: _284  and  _286
REMARK  108  A    between atoms: _286  and  _287
REMARK  109  A    between atoms: _286  and  _289
REMARK  110  A    between atoms: _289  and  _290
REMARK  111  A    between atoms: _290  and  _291
REMARK  112  A    between atoms: _294  and  _295
REMARK                            x       y       z     vdW  Elec       q    Type
REMARK                         _______ _______ _______ _____ _____    ______ ____
ROOT
ATOM      1  CA  TYR A   1      17.067  -8.909  -1.877  0.00  0.00    +0.149 C 
ENDROOT
BRANCH   1   2
ATOM      2  C   TYR A   1      16.025  -7.784  -1.869  0.00  0.00    +0.239 C 
ATOM      3  O   TYR A   1      16.387  -6.610  -1.756  0.00  0.00    -0.274 OA
ATOM      4  N   LEU A   2      14.747  -8.146  -1.975  0.00  0.00    -0.298 N 
ATOM      5  H   LEU A   2      14.528  -9.154  -2.107  0.00  0.00    +0.150 HD
BRANCH   4   6
ATOM      6  CA  LEU A   2      13.628  -7.187  -1.914  0.00  0.00    +0.137 C 
BRANCH   6   7
ATOM      7  C   LEU A   2      13.102  -6.974  -0.506  0.00  0.00    +0.227 C 
ATOM      8  O   LEU A   2      12.282  -6.066  -0.315  0.00  0.00    -0.286 OA
ENDBRANCH   6   7
BRANCH   6   9
ATOM      9  CB  LEU A   2      12.453  -7.655  -2.791  0.00  0.00    +0.028 C 
BRANCH   9  10
ATOM     10  CG  LEU A   2      12.659  -7.816  -4.285  0.00  0.00    +0.002 C 
ATOM     11  CD2 LEU A   2      13.209  -6.542  -4.899  0.00  0.00    +0.000 C 
ATOM     12  CD1 LEU A   2      11.356  -8.207  -4.954  0.00  0.00    +0.000 C 
ENDBRANCH   9  10
ENDBRANCH   6   9
ENDBRANCH   4   6
ENDBRANCH   1   2
BRANCH   1  13
ATOM     13  N   TYR A   1      16.523 -10.235  -1.601  0.00  0.00    -0.238 NA
ATOM     14  H   TYR A   1      16.557 -10.958  -2.348  0.00  0.00    +0.142 HD
ENDBRANCH   1  13
BRANCH   1  15
ATOM     15  CB  TYR A   1      17.847  -8.911  -3.190  0.00  0.00    +0.053 C 
BRANCH  15  16
ATOM     16  CG  TYR A   1      17.079  -9.334  -4.427  0.00  0.00    -0.020 A 
ATOM     17  CD2 TYR A   1      17.176 -10.640  -4.921  0.00  0.00    -0.001 A 
ATOM     18  CE2 TYR A   1      16.491 -11.031  -6.071  0.00  0.00    +0.036 A 
ATOM     19  CZ  TYR A   1      15.712 -10.112  -6.753  0.00  0.00    +0.134 A 
ATOM     20  CE1 TYR A   1      15.609  -8.812  -6.286  0.00  0.00    +0.036 A 
ATOM     21  CD1 TYR A   1      16.296  -8.429  -5.128  0.00  0.00    -0.001 A 
BRANCH  19  22
ATOM     22  OH  TYR A   1      15.015 -10.495  -7.891  0.00  0.00    -0.506 OA
ATOM     23  HH  TYR A   1      14.515  -9.718  -8.247  0.00  0.00    +0.292 HD
ENDBRANCH  19  22
ENDBRANCH  15  16
ENDBRANCH   1  15
TORSDOF 9
REMARK  Name = ../refined-set-2016/4pnu/4pnu_pocket.pdb
REMARK  112 active torsions:
REMARK  status: ('A' for Active; 'I' for Inactive)
REMARK    1  A    between atoms: _1  and  _3
REMARK    2  A    between atoms: _3  and  _4
REMARK    3  A    between atoms: _3  and  _6
REMARK    4  A    between atoms: _6  and  _7
REMARK    5  A    between atoms: _9  and  _11
REMARK    6  A    between atoms: _11  and  _12
REMARK    7  A    between atoms: _11  and  _14
REMARK    8  A    between atoms: _14  and  _15
REMARK    9  A    between atoms: _18  and  _20
REMARK   10  A    between atoms: _20  and  _21
REMARK   11  A    between atoms: _20  and  _23
REMARK   12  A    between atoms: _23  and  _24
REMARK   13  A    between atoms: _24  and  _25
REMARK   14  A    between atoms: _25  and  _26
REMARK   15  A    between atoms: _35  and  _37
REMARK   16  A    between atoms: _37  and  _38
REMARK   17  A    between atoms: _37  and  _40
REMARK   18  A    between atoms: _40  and  _41
REMARK   19  A    between atoms: _46  and  _47
REMARK   20  A    between atoms: _49  and  _51
REMARK   21  A    between atoms: _51  and  _52
REMARK   22  A    between atoms: _51  and  _54
REMARK   23  A    between atoms: _54  and  _55
REMARK   24  A    between atoms: _58  and  _60
REMARK   25  A    between atoms: _60  and  _61
REMARK   26  A    between atoms: _64  and  _66
REMARK   27  A    between atoms: _66  and  _67
REMARK   28  A    between atoms: _66  and  _69
REMARK   29  A    between atoms: _69  and  _70
REMARK   30  A    between atoms: _73  and  _75
REMARK   31  A    between atoms: _75  and  _76
REMARK   32  A    between atoms: _75  and  _78
REMARK   33  A    between atoms: _78  and  _79
REMARK   34  A    between atoms: _82  and  _84
REMARK   35  A    between atoms: _84  and  _85
REMARK   36  A    between atoms: _87  and  _89
REMARK   37  A    between atoms: _89  and  _90
REMARK   38  A    between atoms: _89  and  _92
REMARK   39  A    between atoms: _92  and  _93
REMARK   40  A    between atoms: _98  and  _100
REMARK   41  A    between atoms: _100  and  _101
REMARK   42  A    between atoms: _100  and  _103
REMARK   43  A    between atoms: _103  and  _104
REMARK   44  A    between atoms: _104  and  _105
REMARK   45  A    between atoms: _105  and  _106
REMARK   46  A    between atoms: _115  and  _117
REMARK   47  A    between atoms: _117  and  _118
REMARK   48  A    between atoms: _117  and  _120
REMARK   49  A    between atoms: _120  and  _121
REMARK   50  A    between atoms: _124  and  _126
REMARK   51  A    between atoms: _126  and  _127
REMARK   52  A    between atoms: _130  and  _132
REMARK   53  A    between atoms: _132  and  _133
REMARK   54  A    between atoms: _132  and  _135
REMARK   55  A    between atoms: _135  and  _136
REMARK   56  A    between atoms: _136  and  _137
REMARK   57  A    between atoms: _137  and  _138
REMARK   58  A    between atoms: _147  and  _149
REMARK   59  A    between atoms: _149  and  _150
REMARK   60  A    between atoms: _149  and  _152
REMARK   61  A    between atoms: _152  and  _153
REMARK   62  A    between atoms: _160  and  _161
REMARK   63  A    between atoms: _166  and  _168
REMARK   64  A    between atoms: _168  and  _169
REMARK   65  A    between atoms: _168  and  _171
REMARK   66  A    between atoms: _171  and  _172
REMARK   67  A    between atoms: _175  and  _177
REMARK   68  A    between atoms: _177  and  _178
REMARK   69  A    between atoms: _177  and  _180
REMARK   70  A    between atoms: _180  and  _181
REMARK   71  A    between atoms: _181  and  _182
REMARK   72  A    between atoms: _182  and  _183
REMARK   73  A    between atoms: _192  and  _194
REMARK   74  A    between atoms: _194  and  _195
REMARK   75  A    between atoms: _194  and  _197
REMARK   76  A    between atoms: _200  and  _202
REMARK   77  A    between atoms: _202  and  _203
REMARK   78  A    between atoms: _202  and  _205
REMARK   79  A    between atoms: _205  and  _206
REMARK   80  A    between atoms: _210  and  _211
REMARK   81  A    between atoms: _216  and  _218
REMARK   82  A    between atoms: _218  and  _219
REMARK   83  A    between atoms: _218  and  _221
REMARK   84  A    between atoms: _221  and  _222
REMARK   85  A    between atoms: _227  and  _228
REMARK   86  A    between atoms: _230  and  _232
REMARK   87  A    between atoms: _232  and  _233
REMARK   88  A    between atoms: _232  and  _235
REMARK   89  A    between atoms: _238  and  _240
REMARK   90  A    between atoms: _240  and  _241
REMARK   91  A    between atoms: _240  and  _243
REMARK   92  A    between atoms: _243  and  _244
REMARK   93  A    between atoms: _246  and  _248
REMARK   94  A    between atoms: _248  and  _249
REMARK   95  A    between atoms: _248  and  _251
REMARK   96  A    between atoms: _254  and  _256
REMARK   97  A    between atoms: _256  and  _257
REMARK   98  A    between atoms: _256  and  _259
REMARK   99  A    between atoms: _259  and  _260
REMARK  100  A    between atoms: _265  and  _266
REMARK  101  A    between atoms: _268  and  _270
REMARK  102  A    between atoms: _270  and  _271
REMARK  103  A    between atoms: _270  and  _273
REMARK  104  A    between atoms: _276  and  _278
REMARK  105  A    between atoms: _278  and  _279
REMARK  106  A    between atoms: _278  and  _281
REMARK  107  A    between atoms: _284  and  _286
REMARK  108  A    between atoms: _286  and  _287
REMARK  109  A    between atoms: _286  and  _289
REMARK  110  A    between atoms: _289  and  _290
REMARK  111  A    between atoms: _290  and  _291
REMARK  112  A    between atoms: _294  and  _295
REMARK                            x       y       z     vdW  Elec       q    Type
REMARK                         _______ _______ _______ _____ _____    ______ ____
ROOT
ATOM      1  CA  HIS A   5       4.338  -4.733  -7.619  0.00  0.00    +0.155 C 
ENDROOT
BRANCH   1   3
ATOM      2  C   GLY A   4       6.475  -5.878  -7.966  0.00  0.00    +0.243 C 
ATOM      3  N   HIS A   5       5.626  -5.252  -7.154  0.00  0.00    -0.297 N 
ATOM      4  H   HIS A   5       5.886  -5.127  -6.155  0.00  0.00    +0.150 HD
ATOM      5  O   GLY A   4       6.256  -6.038  -9.175  0.00  0.00    -0.273 OA
BRANCH   2   6
ATOM      6  CA  GLY A   4       7.756  -6.421  -7.343  0.00  0.00    +0.176 C 
BRANCH   6   9
ATOM      7  C   ASP A   3       7.782  -6.341  -4.894  0.00  0.00    +0.241 C 
ATOM      8  O   ASP A   3       7.192  -7.399  -4.791  0.00  0.00    -0.273 OA
ATOM      9  N   GLY A   4       8.129  -5.814  -6.066  0.00  0.00    -0.295 N 
ATOM     10  H   GLY A   4       8.687  -4.936  -6.074  0.00  0.00    +0.150 HD
BRANCH   7  11
ATOM     11  CA  ASP A   3       8.193  -5.575  -3.638  0.00  0.00    +0.160 C 
BRANCH  11  14
ATOM     12  C   THR A   2       9.879  -3.831  -3.662  0.00  0.00    +0.243 C 
ATOM     13  O   THR A   2      10.687  -4.534  -3.039  0.00  0.00    -0.273 OA
ATOM     14  N   ASP A   3       8.647  -4.234  -3.960  0.00  0.00    -0.296 N 
ATOM     15  H   ASP A   3       7.996  -3.575  -4.433  0.00  0.00    +0.150 HD
BRANCH  12  16
ATOM     16  CA  THR A   2      10.231  -2.420  -4.098  0.00  0.00    +0.176 C 
BRANCH  16  18
ATOM     17  C   ALA A   1      11.312  -0.518  -3.055  0.00  0.00    +0.238 C 
ATOM     18  N   THR A   2      11.245  -1.835  -3.235  0.00  0.00    -0.295 N 
ATOM     19  H   THR A   2      11.927  -2.454  -2.752  0.00  0.00    +0.150 HD
ATOM     20  O   ALA A   1      10.568   0.289  -3.634  0.00  0.00    -0.274 OA
BRANCH  17  21
ATOM     21  CA  ALA A   1      12.343  -0.034  -2.070  0.00  0.00    +0.145 C 
ATOM     22  CB  ALA A   1      11.682   0.368  -0.772  0.00  0.00    +0.028 C 
BRANCH  21  23
ATOM     23  N   ALA A   1      13.046   1.085  -2.634  0.00  0.00    -0.238 NA
ATOM     24  H   ALA A   1      12.508   1.822  -3.134  0.00  0.00    +0.142 HD
ENDBRANCH  21  23
ENDBRANCH  17  21
ENDBRANCH  16  18
BRANCH  16  25
ATOM     25  CB  THR A   2      10.666  -2.377  -5.579  0.00  0.00    +0.137 C 
ATOM     26  CG2 THR A   2      11.884  -3.218  -5.809  0.00  0.00    +0.034 C 
BRANCH  25  27
ATOM     27  OG1 THR A   2       9.601  -2.848  -6.421  0.00  0.00    -0.382 OA
ATOM     28  HG1 THR A   2       8.806  -2.271  -6.299  0.00  0.00    +0.210 HD
ENDBRANCH  25  27
ENDBRANCH  16  25
ENDBRANCH  12  16
ENDBRANCH  11  14
BRANCH  11  29
ATOM     29  CB  ASP A   3       7.051  -5.533  -2.613  0.00  0.00    +0.143 C 
BRANCH  29  30
ATOM     30  CG  ASP A   3       5.789  -4.847  -3.141  0.00  0.00    +0.367 C 
ATOM     31  OD2 ASP A   3       4.854  -4.689  -2.321  0.00  0.00    -0.246 OA
ATOM     32  OD1 ASP A   3       5.734  -4.466  -4.336  0.00  0.00    -0.246 OA
ENDBRANCH  29  30
ENDBRANCH  11  29
ENDBRANCH   7  11
ENDBRANCH   6   9
ENDBRANCH   2   6
ENDBRANCH   1   3
BRANCH   1  33
ATOM     33  C   HIS A   5       4.307  -3.208  -7.606  0.00  0.00    +0.241 C 
ATOM     34  N   ARG A   6       5.062  -2.622  -6.684  0.00  0.00    -0.297 N 
ATOM     35  H   ARG A   6       5.577  -3.221  -6.007  0.00  0.00    +0.150 HD
ATOM     36  O   HIS A   5       3.594  -2.577  -8.403  0.00  0.00    -0.273 OA
BRANCH  34  37
ATOM     37  CA  ARG A   6       5.197  -1.186  -6.582  0.00  0.00    +0.149 C 
BRANCH  37  38
ATOM     38  C   ARG A   6       6.603  -0.810  -6.103  0.00  0.00    +0.241 C 
ATOM     39  O   ARG A   6       7.304  -1.616  -5.482  0.00  0.00    -0.273 OA
ATOM     40  N   LEU A   7       7.011   0.414  -6.407  0.00  0.00    -0.297 N 
ATOM     41  H   LEU A   7       6.356   1.059  -6.893  0.00  0.00    +0.150 HD
BRANCH  40  42
ATOM     42  CA  LEU A   7       8.351   0.881  -6.080  0.00  0.00    +0.149 C 
BRANCH  42  43
ATOM     43  C   LEU A   7       8.307   2.301  -5.554  0.00  0.00    +0.241 C 
ATOM     44  N   ALA A   8       9.219   2.579  -4.634  0.00  0.00    -0.298 N 
ATOM     45  H   ALA A   8       9.774   1.795  -4.235  0.00  0.00    +0.150 HD
ATOM     46  O   LEU A   7       7.471   3.124  -5.968  0.00  0.00    -0.273 OA
BRANCH  44  47
ATOM     47  CA  ALA A   8       9.479   3.912  -4.161  0.00  0.00    +0.137 C 
ATOM     48  CB  ALA A   8       9.031   4.047  -2.730  0.00  0.00    +0.030 C 
BRANCH  47  49
ATOM     49  C   ALA A   8      10.986   4.191  -4.278  0.00  0.00    +0.227 C 
ATOM     50  O   ALA A   8      11.815   3.327  -3.987  0.00  0.00    -0.286 OA
ENDBRANCH  47  49
ENDBRANCH  44  47
ENDBRANCH  42  43
BRANCH  42  51
ATOM     51  CB  LEU A   7       9.266   0.785  -7.319  0.00  0.00    +0.029 C 
BRANCH  51  52
ATOM     52  CG  LEU A   7      10.694   1.359  -7.243  0.00  0.00    +0.002 C 
ATOM     53  CD2 LEU A   7      10.750   2.829  -7.646  0.00  0.00    +0.000 C 
ATOM     54  CD1 LEU A   7      11.669   0.540  -8.082  0.00  0.00    +0.000 C 
ENDBRANCH  51  52
ENDBRANCH  42  51
ENDBRANCH  40  42
ENDBRANCH  37  38
BRANCH  37  55
ATOM     55  CB  ARG A   6       4.099  -0.579  -5.683  0.00  0.00    +0.033 C 
BRANCH  55  56
ATOM     56  CG  ARG A   6       3.705  -1.390  -4.450  0.00  0.00    +0.045 C 
BRANCH  56  57
ATOM     57  CD  ARG A   6       4.659  -1.199  -3.292  0.00  0.00    +0.174 C 
BRANCH  57  58
ATOM     58  NE  ARG A   6       4.249  -1.955  -2.112  0.00  0.00    -0.265 N 
ATOM     59  CZ  ARG A   6       3.323  -1.570  -1.233  0.00  0.00    +0.342 C 
ATOM     60  NH2 ARG A   6       3.058  -2.350  -0.201  0.00  0.00    -0.292 N 
ATOM     61 HH21 ARG A   6       2.339  -2.066   0.495  0.00  0.00    +0.255 HD
ATOM     62 HH22 ARG A   6       3.568  -3.249  -0.084  0.00  0.00    +0.255 HD
ATOM     63  NH1 ARG A   6       2.662  -0.421  -1.364  0.00  0.00    -0.292 N 
ATOM     64 HH11 ARG A   6       1.946  -0.150  -0.660  0.00  0.00    +0.255 HD
ATOM     65 HH12 ARG A   6       2.862   0.205  -2.170  0.00  0.00    +0.255 HD
ATOM     66  HE  ARG A   6       4.717  -2.868  -1.943  0.00  0.00    +0.259 HD
ENDBRANCH  57  58
ENDBRANCH  56  57
ENDBRANCH  55  56
ENDBRANCH  37  55
ENDBRANCH  34  37
ENDBRANCH   1  33
BRANCH   1  67
ATOM     67  CB  HIS A   5       3.219  -5.268  -6.741  0.00  0.00    +0.076 C 
BRANCH  67  68
ATOM     68  CG  HIS A   5       3.191  -6.761  -6.618  0.00  0.00    +0.082 A 
ATOM     69  ND1 HIS A   5       3.846  -7.436  -5.608  0.00  0.00    -0.227 NA
ATOM     70  CE1 HIS A   5       3.632  -8.733  -5.736  0.00  0.00    +0.199 A 
ATOM     71  NE2 HIS A   5       2.865  -8.924  -6.793  0.00  0.00    -0.221 NA
ATOM     72  CD2 HIS A   5       2.577  -7.708  -7.363  0.00  0.00    +0.115 A 
ENDBRANCH  67  68
ENDBRANCH   1  67
TORSDOF 28
REMARK  Name = ../refined-set-2016/4pnu/4pnu_pocket.pdb
REMARK  112 active torsions:
REMARK  status: ('A' for Active; 'I' for Inactive)
REMARK    1  A    between atoms: _1  and  _3
REMARK    2  A    between atoms: _3  and  _4
REMARK    3  A    between atoms: _3  and  _6
REMARK    4  A    between atoms: _6  and  _7
REMARK    5  A    between atoms: _9  and  _11
REMARK    6  A    between atoms: _11  and  _12
REMARK    7  A    between atoms: _11  and  _14
REMARK    8  A    between atoms: _14  and  _15
REMARK    9  A    between atoms: _18  and  _20
REMARK   10  A    between atoms: _20  and  _21
REMARK   11  A    between atoms: _20  and  _23
REMARK   12  A    between atoms: _23  and  _24
REMARK   13  A    between atoms: _24  and  _25
REMARK   14  A    between atoms: _25  and  _26
REMARK   15  A    between atoms: _35  and  _37
REMARK   16  A    between atoms: _37  and  _38
REMARK   17  A    between atoms: _37  and  _40
REMARK   18  A    between atoms: _40  and  _41
REMARK   19  A    between atoms: _46  and  _47
REMARK   20  A    between atoms: _49  and  _51
REMARK   21  A    between atoms: _51  and  _52
REMARK   22  A    between atoms: _51  and  _54
REMARK   23  A    between atoms: _54  and  _55
REMARK   24  A    between atoms: _58  and  _60
REMARK   25  A    between atoms: _60  and  _61
REMARK   26  A    between atoms: _64  and  _66
REMARK   27  A    between atoms: _66  and  _67
REMARK   28  A    between atoms: _66  and  _69
REMARK   29  A    between atoms: _69  and  _70
REMARK   30  A    between atoms: _73  and  _75
REMARK   31  A    between atoms: _75  and  _76
REMARK   32  A    between atoms: _75  and  _78
REMARK   33  A    between atoms: _78  and  _79
REMARK   34  A    between atoms: _82  and  _84
REMARK   35  A    between atoms: _84  and  _85
REMARK   36  A    between atoms: _87  and  _89
REMARK   37  A    between atoms: _89  and  _90
REMARK   38  A    between atoms: _89  and  _92
REMARK   39  A    between atoms: _92  and  _93
REMARK   40  A    between atoms: _98  and  _100
REMARK   41  A    between atoms: _100  and  _101
REMARK   42  A    between atoms: _100  and  _103
REMARK   43  A    between atoms: _103  and  _104
REMARK   44  A    between atoms: _104  and  _105
REMARK   45  A    between atoms: _105  and  _106
REMARK   46  A    between atoms: _115  and  _117
REMARK   47  A    between atoms: _117  and  _118
REMARK   48  A    between atoms: _117  and  _120
REMARK   49  A    between atoms: _120  and  _121
REMARK   50  A    between atoms: _124  and  _126
REMARK   51  A    between atoms: _126  and  _127
REMARK   52  A    between atoms: _130  and  _132
REMARK   53  A    between atoms: _132  and  _133
REMARK   54  A    between atoms: _132  and  _135
REMARK   55  A    between atoms: _135  and  _136
REMARK   56  A    between atoms: _136  and  _137
REMARK   57  A    between atoms: _137  and  _138
REMARK   58  A    between atoms: _147  and  _149
REMARK   59  A    between atoms: _149  and  _150
REMARK   60  A    between atoms: _149  and  _152
REMARK   61  A    between atoms: _152  and  _153
REMARK   62  A    between atoms: _160  and  _161
REMARK   63  A    between atoms: _166  and  _168
REMARK   64  A    between atoms: _168  and  _169
REMARK   65  A    between atoms: _168  and  _171
REMARK   66  A    between atoms: _171  and  _172
REMARK   67  A    between atoms: _175  and  _177
REMARK   68  A    between atoms: _177  and  _178
REMARK   69  A    between atoms: _177  and  _180
REMARK   70  A    between atoms: _180  and  _181
REMARK   71  A    between atoms: _181  and  _182
REMARK   72  A    between atoms: _182  and  _183
REMARK   73  A    between atoms: _192  and  _194
REMARK   74  A    between atoms: _194  and  _195
REMARK   75  A    between atoms: _194  and  _197
REMARK   76  A    between atoms: _200  and  _202
REMARK   77  A    between atoms: _202  and  _203
REMARK   78  A    between atoms: _202  and  _205
REMARK   79  A    between atoms: _205  and  _206
REMARK   80  A    between atoms: _210  and  _211
REMARK   81  A    between atoms: _216  and  _218
REMARK   82  A    between atoms: _218  and  _219
REMARK   83  A    between atoms: _218  and  _221
REMARK   84  A    between atoms: _221  and  _222
REMARK   85  A    between atoms: _227  and  _228
REMARK   86  A    between atoms: _230  and  _232
REMARK   87  A    between atoms: _232  and  _233
REMARK   88  A    between atoms: _232  and  _235
REMARK   89  A    between atoms: _238  and  _240
REMARK   90  A    between atoms: _240  and  _241
REMARK   91  A    between atoms: _240  and  _243
REMARK   92  A    between atoms: _243  and  _244
REMARK   93  A    between atoms: _246  and  _248
REMARK   94  A    between atoms: _248  and  _249
REMARK   95  A    between atoms: _248  and  _251
REMARK   96  A    between atoms: _254  and  _256
REMARK   97  A    between atoms: _256  and  _257
REMARK   98  A    between atoms: _256  and  _259
REMARK   99  A    between atoms: _259  and  _260
REMARK  100  A    between atoms: _265  and  _266
REMARK  101  A    between atoms: _268  and  _270
REMARK  102  A    between atoms: _270  and  _271
REMARK  103  A    between atoms: _270  and  _273
REMARK  104  A    between atoms: _276  and  _278
REMARK  105  A    between atoms: _278  and  _279
REMARK  106  A    between atoms: _278  and  _281
REMARK  107  A    between atoms: _284  and  _286
REMARK  108  A    between atoms: _286  and  _287
REMARK  109  A    between atoms: _286  and  _289
REMARK  110  A    between atoms: _289  and  _290
REMARK  111  A    between atoms: _290  and  _291
REMARK  112  A    between atoms: _294  and  _295
REMARK                            x       y       z     vdW  Elec       q    Type
REMARK                         _______ _______ _______ _____ _____    ______ ____
ROOT
ATOM      1  CA  PHE A   2      18.660  -5.328  -6.625  0.00  0.00    +0.153 C 
ENDROOT
BRANCH   1   2
ATOM      2  C   PHE A   2      18.244  -4.809  -8.005  0.00  0.00    +0.244 C 
ATOM      3  N   PRO A   3      16.926  -4.652  -8.245  0.00  0.00    -0.272 N 
ATOM      4  CD  PRO A   3      15.762  -5.090  -7.449  0.00  0.00    +0.094 C 
ATOM      5  CG  PRO A   3      14.630  -4.302  -8.051  0.00  0.00    +0.024 C 
ATOM      6  CB  PRO A   3      14.974  -4.123  -9.489  0.00  0.00    +0.031 C 
ATOM      7  CA  PRO A   3      16.519  -4.073  -9.537  0.00  0.00    +0.152 C 
ATOM      8  O   PHE A   2      19.101  -4.567  -8.858  0.00  0.00    -0.273 OA
BRANCH   7   9
ATOM      9  C   PRO A   3      16.970  -2.631  -9.721  0.00  0.00    +0.241 C 
ATOM     10  O   PRO A   3      17.277  -1.940  -8.750  0.00  0.00    -0.273 OA
ATOM     11  N   ASP A   4      16.974  -2.180 -10.967  0.00  0.00    -0.298 N 
ATOM     12  H   ASP A   4      16.644  -2.809 -11.726  0.00  0.00    +0.150 HD
BRANCH  11  13
ATOM     13  CA  ASP A   4      17.419  -0.846 -11.314  0.00  0.00    +0.148 C 
BRANCH  13  14
ATOM     14  C   ASP A   4      16.176   0.038 -11.407  0.00  0.00    +0.227 C 
ATOM     15  O   ASP A   4      15.350  -0.131 -12.307  0.00  0.00    -0.286 OA
ENDBRANCH  13  14
BRANCH  13  16
ATOM     16  CB  ASP A   4      18.177  -0.919 -12.647  0.00  0.00    +0.142 C 
BRANCH  16  17
ATOM     17  CG  ASP A   4      18.660   0.425 -13.145  0.00  0.00    +0.367 C 
ATOM     18  OD2 ASP A   4      18.410   1.485 -12.523  0.00  0.00    -0.246 OA
ATOM     19  OD1 ASP A   4      19.302   0.420 -14.215  0.00  0.00    -0.246 OA
ENDBRANCH  16  17
ENDBRANCH  13  16
ENDBRANCH  11  13
ENDBRANCH   7   9
ENDBRANCH   1   2
BRANCH   1  21
ATOM     20  C   ARG A   1      19.800  -7.318  -7.398  0.00  0.00    +0.238 C 
ATOM     21  N   PHE A   2      19.845  -6.166  -6.753  0.00  0.00    -0.297 N 
ATOM     22  H   PHE A   2      20.741  -5.852  -6.329  0.00  0.00    +0.150 HD
ATOM     23  O   ARG A   1      18.773  -7.757  -7.897  0.00  0.00    -0.274 OA
BRANCH  20  24
ATOM     24  CA  ARG A   1      21.112  -8.088  -7.503  0.00  0.00    +0.145 C 
BRANCH  24  25
ATOM     25  N   ARG A   1      21.101  -9.186  -6.546  0.00  0.00    -0.238 NA
ATOM     26  H   ARG A   1      20.645 -10.083  -6.808  0.00  0.00    +0.142 HD
ENDBRANCH  24  25
BRANCH  24  27
ATOM     27  CB  ARG A   1      21.313  -8.603  -8.931  0.00  0.00    +0.030 C 
BRANCH  27  28
ATOM     28  CG  ARG A   1      22.701  -9.172  -9.222  0.00  0.00    +0.045 C 
BRANCH  28  29
ATOM     29  CD  ARG A   1      23.017  -9.166 -10.715  0.00  0.00    +0.174 C 
BRANCH  29  30
ATOM     30  NE  ARG A   1      21.920  -9.699 -11.513  0.00  0.00    -0.265 N 
ATOM     31  CZ  ARG A   1      21.590 -10.985 -11.595  0.00  0.00    +0.342 C 
ATOM     32  NH2 ARG A   1      22.295 -11.912 -10.947  0.00  0.00    -0.292 N 
ATOM     33 HH21 ARG A   1      23.113 -11.633 -10.369  0.00  0.00    +0.255 HD
ATOM     34 HH22 ARG A   1      22.027 -12.914 -11.019  0.00  0.00    +0.255 HD
ATOM     35  NH1 ARG A   1      20.551 -11.354 -12.349  0.00  0.00    -0.292 N 
ATOM     36 HH11 ARG A   1      20.288 -12.358 -12.417  0.00  0.00    +0.255 HD
ATOM     37 HH12 ARG A   1      20.005 -10.637 -12.868  0.00  0.00    +0.255 HD
ATOM     38  HE  ARG A   1      21.351  -9.022 -12.060  0.00  0.00    +0.259 HD
ENDBRANCH  29  30
ENDBRANCH  28  29
ENDBRANCH  27  28
ENDBRANCH  24  27
ENDBRANCH  20  24
ENDBRANCH   1  21
BRANCH   1  39
ATOM     39  CB  PHE A   2      18.922  -4.170  -5.661  0.00  0.00    +0.055 C 
BRANCH  39  40
ATOM     40  CG  PHE A   2      17.671  -3.604  -5.056  0.00  0.00    -0.020 A 
ATOM     41  CD2 PHE A   2      17.107  -4.183  -3.936  0.00  0.00    -0.004 A 
ATOM     42  CE2 PHE A   2      15.952  -3.666  -3.371  0.00  0.00    -0.000 A 
ATOM     43  CZ  PHE A   2      15.337  -2.565  -3.946  0.00  0.00    -0.000 A 
ATOM     44  CE1 PHE A   2      15.880  -1.986  -5.074  0.00  0.00    -0.000 A 
ATOM     45  CD1 PHE A   2      17.050  -2.496  -5.621  0.00  0.00    -0.004 A 
ENDBRANCH  39  40
ENDBRANCH   1  39
TORSDOF 15
REMARK  Name = ../refined-set-2016/4pnu/4pnu_pocket.pdb
REMARK  112 active torsions:
REMARK  status: ('A' for Active; 'I' for Inactive)
REMARK    1  A    between atoms: _1  and  _3
REMARK    2  A    between atoms: _3  and  _4
REMARK    3  A    between atoms: _3  and  _6
REMARK    4  A    between atoms: _6  and  _7
REMARK    5  A    between atoms: _9  and  _11
REMARK    6  A    between atoms: _11  and  _12
REMARK    7  A    between atoms: _11  and  _14
REMARK    8  A    between atoms: _14  and  _15
REMARK    9  A    between atoms: _18  and  _20
REMARK   10  A    between atoms: _20  and  _21
REMARK   11  A    between atoms: _20  and  _23
REMARK   12  A    between atoms: _23  and  _24
REMARK   13  A    between atoms: _24  and  _25
REMARK   14  A    between atoms: _25  and  _26
REMARK   15  A    between atoms: _35  and  _37
REMARK   16  A    between atoms: _37  and  _38
REMARK   17  A    between atoms: _37  and  _40
REMARK   18  A    between atoms: _40  and  _41
REMARK   19  A    between atoms: _46  and  _47
REMARK   20  A    between atoms: _49  and  _51
REMARK   21  A    between atoms: _51  and  _52
REMARK   22  A    between atoms: _51  and  _54
REMARK   23  A    between atoms: _54  and  _55
REMARK   24  A    between atoms: _58  and  _60
REMARK   25  A    between atoms: _60  and  _61
REMARK   26  A    between atoms: _64  and  _66
REMARK   27  A    between atoms: _66  and  _67
REMARK   28  A    between atoms: _66  and  _69
REMARK   29  A    between atoms: _69  and  _70
REMARK   30  A    between atoms: _73  and  _75
REMARK   31  A    between atoms: _75  and  _76
REMARK   32  A    between atoms: _75  and  _78
REMARK   33  A    between atoms: _78  and  _79
REMARK   34  A    between atoms: _82  and  _84
REMARK   35  A    between atoms: _84  and  _85
REMARK   36  A    between atoms: _87  and  _89
REMARK   37  A    between atoms: _89  and  _90
REMARK   38  A    between atoms: _89  and  _92
REMARK   39  A    between atoms: _92  and  _93
REMARK   40  A    between atoms: _98  and  _100
REMARK   41  A    between atoms: _100  and  _101
REMARK   42  A    between atoms: _100  and  _103
REMARK   43  A    between atoms: _103  and  _104
REMARK   44  A    between atoms: _104  and  _105
REMARK   45  A    between atoms: _105  and  _106
REMARK   46  A    between atoms: _115  and  _117
REMARK   47  A    between atoms: _117  and  _118
REMARK   48  A    between atoms: _117  and  _120
REMARK   49  A    between atoms: _120  and  _121
REMARK   50  A    between atoms: _124  and  _126
REMARK   51  A    between atoms: _126  and  _127
REMARK   52  A    between atoms: _130  and  _132
REMARK   53  A    between atoms: _132  and  _133
REMARK   54  A    between atoms: _132  and  _135
REMARK   55  A    between atoms: _135  and  _136
REMARK   56  A    between atoms: _136  and  _137
REMARK   57  A    between atoms: _137  and  _138
REMARK   58  A    between atoms: _147  and  _149
REMARK   59  A    between atoms: _149  and  _150
REMARK   60  A    between atoms: _149  and  _152
REMARK   61  A    between atoms: _152  and  _153
REMARK   62  A    between atoms: _160  and  _161
REMARK   63  A    between atoms: _166  and  _168
REMARK   64  A    between atoms: _168  and  _169
REMARK   65  A    between atoms: _168  and  _171
REMARK   66  A    between atoms: _171  and  _172
REMARK   67  A    between atoms: _175  and  _177
REMARK   68  A    between atoms: _177  and  _178
REMARK   69  A    between atoms: _177  and  _180
REMARK   70  A    between atoms: _180  and  _181
REMARK   71  A    between atoms: _181  and  _182
REMARK   72  A    between atoms: _182  and  _183
REMARK   73  A    between atoms: _192  and  _194
REMARK   74  A    between atoms: _194  and  _195
REMARK   75  A    between atoms: _194  and  _197
REMARK   76  A    between atoms: _200  and  _202
REMARK   77  A    between atoms: _202  and  _203
REMARK   78  A    between atoms: _202  and  _205
REMARK   79  A    between atoms: _205  and  _206
REMARK   80  A    between atoms: _210  and  _211
REMARK   81  A    between atoms: _216  and  _218
REMARK   82  A    between atoms: _218  and  _219
REMARK   83  A    between atoms: _218  and  _221
REMARK   84  A    between atoms: _221  and  _222
REMARK   85  A    between atoms: _227  and  _228
REMARK   86  A    between atoms: _230  and  _232
REMARK   87  A    between atoms: _232  and  _233
REMARK   88  A    between atoms: _232  and  _235
REMARK   89  A    between atoms: _238  and  _240
REMARK   90  A    between atoms: _240  and  _241
REMARK   91  A    between atoms: _240  and  _243
REMARK   92  A    between atoms: _243  and  _244
REMARK   93  A    between atoms: _246  and  _248
REMARK   94  A    between atoms: _248  and  _249
REMARK   95  A    between atoms: _248  and  _251
REMARK   96  A    between atoms: _254  and  _256
REMARK   97  A    between atoms: _256  and  _257
REMARK   98  A    between atoms: _256  and  _259
REMARK   99  A    between atoms: _259  and  _260
REMARK  100  A    between atoms: _265  and  _266
REMARK  101  A    between atoms: _268  and  _270
REMARK  102  A    between atoms: _270  and  _271
REMARK  103  A    between atoms: _270  and  _273
REMARK  104  A    between atoms: _276  and  _278
REMARK  105  A    between atoms: _278  and  _279
REMARK  106  A    between atoms: _278  and  _281
REMARK  107  A    between atoms: _284  and  _286
REMARK  108  A    between atoms: _286  and  _287
REMARK  109  A    between atoms: _286  and  _289
REMARK  110  A    between atoms: _289  and  _290
REMARK  111  A    between atoms: _290  and  _291
REMARK  112  A    between atoms: _294  and  _295
REMARK                            x       y       z     vdW  Elec       q    Type
REMARK                         _______ _______ _______ _____ _____    ______ ____
ROOT
ATOM      1  CA  VAL A   2      10.988   0.598 -13.345  0.00  0.00    +0.148 C 
ENDROOT
BRANCH   1   3
ATOM      2  C   ARG A   1      12.599   0.398 -15.160  0.00  0.00    +0.238 C 
ATOM      3  N   VAL A   2      12.329   0.671 -13.887  0.00  0.00    -0.297 N 
ATOM      4  H   VAL A   2      13.109   0.947 -13.257  0.00  0.00    +0.150 HD
ATOM      5  O   ARG A   1      11.754   0.040 -15.968  0.00  0.00    -0.274 OA
BRANCH   2   6
ATOM      6  CA  ARG A   1      14.049   0.498 -15.564  0.00  0.00    +0.145 C 
BRANCH   6   7
ATOM      7  N   ARG A   1      14.769   1.401 -14.671  0.00  0.00    -0.238 NA
ATOM      8  H   ARG A   1      15.306   0.998 -13.877  0.00  0.00    +0.142 HD
ENDBRANCH   6   7
BRANCH   6   9
ATOM      9  CB  ARG A   1      14.644  -0.901 -15.491  0.00  0.00    +0.030 C 
BRANCH   9  10
ATOM     10  CG  ARG A   1      16.103  -0.963 -15.876  0.00  0.00    +0.045 C 
BRANCH  10  11
ATOM     11  CD  ARG A   1      16.246  -0.870 -17.382  0.00  0.00    +0.174 C 
BRANCH  11  12
ATOM     12  NE  ARG A   1      17.356  -0.020 -17.780  0.00  0.00    -0.265 N 
ATOM     13  HE  ARG A   1      17.862   0.507 -17.040  0.00  0.00    +0.259 HD
ATOM     14  CZ  ARG A   1      17.757   0.119 -19.036  0.00  0.00    +0.342 C 
ATOM     15  NH2 ARG A   1      18.780   0.927 -19.311  0.00  0.00    -0.292 N 
ATOM     16 HH21 ARG A   1      19.257   1.442 -18.544  0.00  0.00    +0.255 HD
ATOM     17 HH22 ARG A   1      19.102   1.043 -20.293  0.00  0.00    +0.255 HD
ATOM     18  NH1 ARG A   1      17.127  -0.545 -20.008  0.00  0.00    -0.292 N 
ATOM     19 HH11 ARG A   1      16.326  -1.167 -19.778  0.00  0.00    +0.255 HD
ATOM     20 HH12 ARG A   1      17.437  -0.440 -20.995  0.00  0.00    +0.255 HD
ENDBRANCH  11  12
ENDBRANCH  10  11
ENDBRANCH   9  10
ENDBRANCH   6   9
ENDBRANCH   2   6
ENDBRANCH   1   3
BRANCH   1  21
ATOM     21  C   VAL A   2      10.254   1.903 -13.627  0.00  0.00    +0.241 C 
ATOM     22  N   LEU A   3      10.958   3.030 -13.496  0.00  0.00    -0.297 N 
ATOM     23  H   LEU A   3      11.921   2.981 -13.105  0.00  0.00    +0.150 HD
ATOM     24  O   VAL A   2       9.071   1.885 -13.943  0.00  0.00    -0.273 OA
BRANCH  22  25
ATOM     25  CA  LEU A   3      10.417   4.329 -13.885  0.00  0.00    +0.149 C 
BRANCH  25  26
ATOM     26  C   LEU A   3      10.009   4.285 -15.340  0.00  0.00    +0.244 C 
ATOM     27  N   PRO A   4       8.782   4.734 -15.644  0.00  0.00    -0.273 N 
ATOM     28  CD  PRO A   4       7.667   4.993 -14.713  0.00  0.00    +0.094 C 
ATOM     29  CG  PRO A   4       6.478   5.140 -15.621  0.00  0.00    +0.024 C 
ATOM     30  CB  PRO A   4       7.020   5.547 -16.947  0.00  0.00    +0.030 C 
ATOM     31  CA  PRO A   4       8.361   4.823 -17.037  0.00  0.00    +0.140 C 
ATOM     32  O   LEU A   3      10.791   3.838 -16.185  0.00  0.00    -0.273 OA
BRANCH  31  33
ATOM     33  C   PRO A   4       9.339   5.626 -17.881  0.00  0.00    +0.227 C 
ATOM     34  O   PRO A   4       9.849   6.648 -17.420  0.00  0.00    -0.286 OA
ENDBRANCH  31  33
ENDBRANCH  25  26
BRANCH  25  35
ATOM     35  CB  LEU A   3      11.452   5.445 -13.706  0.00  0.00    +0.029 C 
BRANCH  35  36
ATOM     36  CG  LEU A   3      11.839   5.821 -12.279  0.00  0.00    +0.002 C 
ATOM     37  CD2 LEU A   3      10.655   6.366 -11.498  0.00  0.00    +0.000 C 
ATOM     38  CD1 LEU A   3      12.962   6.841 -12.323  0.00  0.00    +0.000 C 
ENDBRANCH  35  36
ENDBRANCH  25  35
ENDBRANCH  22  25
ENDBRANCH   1  21
BRANCH   1  39
ATOM     39  CB  VAL A   2      11.020   0.319 -11.829  0.00  0.00    +0.027 C 
ATOM     40  CG2 VAL A   2       9.612   0.301 -11.251  0.00  0.00    +0.002 C 
ATOM     41  CG1 VAL A   2      11.735  -1.004 -11.544  0.00  0.00    +0.002 C 
ENDBRANCH   1  39
TORSDOF 14
REMARK  Name = ../refined-set-2016/4pnu/4pnu_pocket.pdb
REMARK  112 active torsions:
REMARK  status: ('A' for Active; 'I' for Inactive)
REMARK    1  A    between atoms: _1  and  _3
REMARK    2  A    between atoms: _3  and  _4
REMARK    3  A    between atoms: _3  and  _6
REMARK    4  A    between atoms: _6  and  _7
REMARK    5  A    between atoms: _9  and  _11
REMARK    6  A    between atoms: _11  and  _12
REMARK    7  A    between atoms: _11  and  _14
REMARK    8  A    between atoms: _14  and  _15
REMARK    9  A    between atoms: _18  and  _20
REMARK   10  A    between atoms: _20  and  _21
REMARK   11  A    between atoms: _20  and  _23
REMARK   12  A    between atoms: _23  and  _24
REMARK   13  A    between atoms: _24  and  _25
REMARK   14  A    between atoms: _25  and  _26
REMARK   15  A    between atoms: _35  and  _37
REMARK   16  A    between atoms: _37  and  _38
REMARK   17  A    between atoms: _37  and  _40
REMARK   18  A    between atoms: _40  and  _41
REMARK   19  A    between atoms: _46  and  _47
REMARK   20  A    between atoms: _49  and  _51
REMARK   21  A    between atoms: _51  and  _52
REMARK   22  A    between atoms: _51  and  _54
REMARK   23  A    between atoms: _54  and  _55
REMARK   24  A    between atoms: _58  and  _60
REMARK   25  A    between atoms: _60  and  _61
REMARK   26  A    between atoms: _64  and  _66
REMARK   27  A    between atoms: _66  and  _67
REMARK   28  A    between atoms: _66  and  _69
REMARK   29  A    between atoms: _69  and  _70
REMARK   30  A    between atoms: _73  and  _75
REMARK   31  A    between atoms: _75  and  _76
REMARK   32  A    between atoms: _75  and  _78
REMARK   33  A    between atoms: _78  and  _79
REMARK   34  A    between atoms: _82  and  _84
REMARK   35  A    between atoms: _84  and  _85
REMARK   36  A    between atoms: _87  and  _89
REMARK   37  A    between atoms: _89  and  _90
REMARK   38  A    between atoms: _89  and  _92
REMARK   39  A    between atoms: _92  and  _93
REMARK   40  A    between atoms: _98  and  _100
REMARK   41  A    between atoms: _100  and  _101
REMARK   42  A    between atoms: _100  and  _103
REMARK   43  A    between atoms: _103  and  _104
REMARK   44  A    between atoms: _104  and  _105
REMARK   45  A    between atoms: _105  and  _106
REMARK   46  A    between atoms: _115  and  _117
REMARK   47  A    between atoms: _117  and  _118
REMARK   48  A    between atoms: _117  and  _120
REMARK   49  A    between atoms: _120  and  _121
REMARK   50  A    between atoms: _124  and  _126
REMARK   51  A    between atoms: _126  and  _127
REMARK   52  A    between atoms: _130  and  _132
REMARK   53  A    between atoms: _132  and  _133
REMARK   54  A    between atoms: _132  and  _135
REMARK   55  A    between atoms: _135  and  _136
REMARK   56  A    between atoms: _136  and  _137
REMARK   57  A    between atoms: _137  and  _138
REMARK   58  A    between atoms: _147  and  _149
REMARK   59  A    between atoms: _149  and  _150
REMARK   60  A    between atoms: _149  and  _152
REMARK   61  A    between atoms: _152  and  _153
REMARK   62  A    between atoms: _160  and  _161
REMARK   63  A    between atoms: _166  and  _168
REMARK   64  A    between atoms: _168  and  _169
REMARK   65  A    between atoms: _168  and  _171
REMARK   66  A    between atoms: _171  and  _172
REMARK   67  A    between atoms: _175  and  _177
REMARK   68  A    between atoms: _177  and  _178
REMARK   69  A    between atoms: _177  and  _180
REMARK   70  A    between atoms: _180  and  _181
REMARK   71  A    between atoms: _181  and  _182
REMARK   72  A    between atoms: _182  and  _183
REMARK   73  A    between atoms: _192  and  _194
REMARK   74  A    between atoms: _194  and  _195
REMARK   75  A    between atoms: _194  and  _197
REMARK   76  A    between atoms: _200  and  _202
REMARK   77  A    between atoms: _202  and  _203
REMARK   78  A    between atoms: _202  and  _205
REMARK   79  A    between atoms: _205  and  _206
REMARK   80  A    between atoms: _210  and  _211
REMARK   81  A    between atoms: _216  and  _218
REMARK   82  A    between atoms: _218  and  _219
REMARK   83  A    between atoms: _218  and  _221
REMARK   84  A    between atoms: _221  and  _222
REMARK   85  A    between atoms: _227  and  _228
REMARK   86  A    between atoms: _230  and  _232
REMARK   87  A    between atoms: _232  and  _233
REMARK   88  A    between atoms: _232  and  _235
REMARK   89  A    between atoms: _238  and  _240
REMARK   90  A    between atoms: _240  and  _241
REMARK   91  A    between atoms: _240  and  _243
REMARK   92  A    between atoms: _243  and  _244
REMARK   93  A    between atoms: _246  and  _248
REMARK   94  A    between atoms: _248  and  _249
REMARK   95  A    between atoms: _248  and  _251
REMARK   96  A    between atoms: _254  and  _256
REMARK   97  A    between atoms: _256  and  _257
REMARK   98  A    between atoms: _256  and  _259
REMARK   99  A    between atoms: _259  and  _260
REMARK  100  A    between atoms: _265  and  _266
REMARK  101  A    between atoms: _268  and  _270
REMARK  102  A    between atoms: _270  and  _271
REMARK  103  A    between atoms: _270  and  _273
REMARK  104  A    between atoms: _276  and  _278
REMARK  105  A    between atoms: _278  and  _279
REMARK  106  A    between atoms: _278  and  _281
REMARK  107  A    between atoms: _284  and  _286
REMARK  108  A    between atoms: _286  and  _287
REMARK  109  A    between atoms: _286  and  _289
REMARK  110  A    between atoms: _289  and  _290
REMARK  111  A    between atoms: _290  and  _291
REMARK  112  A    between atoms: _294  and  _295
REMARK                            x       y       z     vdW  Elec       q    Type
REMARK                         _______ _______ _______ _____ _____    ______ ____
ROOT
ATOM      1  CG  TYR A   1      -0.213  -1.597  -4.766  0.00  0.00    -0.020 A 
ATOM      2  CD2 TYR A   1       0.149  -2.184  -3.555  0.00  0.00    -0.001 A 
ATOM      3  CE2 TYR A   1       0.422  -3.535  -3.473  0.00  0.00    +0.036 A 
ATOM      4  CZ  TYR A   1       0.346  -4.308  -4.611  0.00  0.00    +0.134 A 
ATOM      5  CE1 TYR A   1       0.009  -3.743  -5.822  0.00  0.00    +0.036 A 
ATOM      6  CD1 TYR A   1      -0.262  -2.395  -5.895  0.00  0.00    -0.001 A 
ENDROOT
BRANCH   4   7
ATOM      7  OH  TYR A   1       0.620  -5.653  -4.539  0.00  0.00    -0.506 OA
ATOM      8  HH  TYR A   1       0.842  -5.894  -3.605  0.00  0.00    +0.292 HD
ENDBRANCH   4   7
BRANCH   1   9
ATOM      9  CB  TYR A   1      -0.483  -0.133  -4.872  0.00  0.00    +0.051 C 
BRANCH   9  10
ATOM     10  CA  TYR A   1      -0.904   0.541  -3.570  0.00  0.00    +0.137 C 
BRANCH  10  11
ATOM     11  N   TYR A   1      -2.197   0.037  -3.129  0.00  0.00    -0.239 NA
ATOM     12  H   TYR A   1      -2.705  -0.654  -3.717  0.00  0.00    +0.142 HD
ENDBRANCH  10  11
BRANCH  10  13
ATOM     13  C   TYR A   1      -0.929   2.046  -3.787  0.00  0.00    +0.224 C 
ATOM     14  O   TYR A   1       0.001   2.749  -3.402  0.00  0.00    -0.287 OA
ENDBRANCH  10  13
ENDBRANCH   9  10
ENDBRANCH   1   9
TORSDOF 5
REMARK  Name = ../refined-set-2016/4pnu/4pnu_pocket.pdb
REMARK  112 active torsions:
REMARK  status: ('A' for Active; 'I' for Inactive)
REMARK    1  A    between atoms: _1  and  _3
REMARK    2  A    between atoms: _3  and  _4
REMARK    3  A    between atoms: _3  and  _6
REMARK    4  A    between atoms: _6  and  _7
REMARK    5  A    between atoms: _9  and  _11
REMARK    6  A    between atoms: _11  and  _12
REMARK    7  A    between atoms: _11  and  _14
REMARK    8  A    between atoms: _14  and  _15
REMARK    9  A    between atoms: _18  and  _20
REMARK   10  A    between atoms: _20  and  _21
REMARK   11  A    between atoms: _20  and  _23
REMARK   12  A    between atoms: _23  and  _24
REMARK   13  A    between atoms: _24  and  _25
REMARK   14  A    between atoms: _25  and  _26
REMARK   15  A    between atoms: _35  and  _37
REMARK   16  A    between atoms: _37  and  _38
REMARK   17  A    between atoms: _37  and  _40
REMARK   18  A    between atoms: _40  and  _41
REMARK   19  A    between atoms: _46  and  _47
REMARK   20  A    between atoms: _49  and  _51
REMARK   21  A    between atoms: _51  and  _52
REMARK   22  A    between atoms: _51  and  _54
REMARK   23  A    between atoms: _54  and  _55
REMARK   24  A    between atoms: _58  and  _60
REMARK   25  A    between atoms: _60  and  _61
REMARK   26  A    between atoms: _64  and  _66
REMARK   27  A    between atoms: _66  and  _67
REMARK   28  A    between atoms: _66  and  _69
REMARK   29  A    between atoms: _69  and  _70
REMARK   30  A    between atoms: _73  and  _75
REMARK   31  A    between atoms: _75  and  _76
REMARK   32  A    between atoms: _75  and  _78
REMARK   33  A    between atoms: _78  and  _79
REMARK   34  A    between atoms: _82  and  _84
REMARK   35  A    between atoms: _84  and  _85
REMARK   36  A    between atoms: _87  and  _89
REMARK   37  A    between atoms: _89  and  _90
REMARK   38  A    between atoms: _89  and  _92
REMARK   39  A    between atoms: _92  and  _93
REMARK   40  A    between atoms: _98  and  _100
REMARK   41  A    between atoms: _100  and  _101
REMARK   42  A    between atoms: _100  and  _103
REMARK   43  A    between atoms: _103  and  _104
REMARK   44  A    between atoms: _104  and  _105
REMARK   45  A    between atoms: _105  and  _106
REMARK   46  A    between atoms: _115  and  _117
REMARK   47  A    between atoms: _117  and  _118
REMARK   48  A    between atoms: _117  and  _120
REMARK   49  A    between atoms: _120  and  _121
REMARK   50  A    between atoms: _124  and  _126
REMARK   51  A    between atoms: _126  and  _127
REMARK   52  A    between atoms: _130  and  _132
REMARK   53  A    between atoms: _132  and  _133
REMARK   54  A    between atoms: _132  and  _135
REMARK   55  A    between atoms: _135  and  _136
REMARK   56  A    between atoms: _136  and  _137
REMARK   57  A    between atoms: _137  and  _138
REMARK   58  A    between atoms: _147  and  _149
REMARK   59  A    between atoms: _149  and  _150
REMARK   60  A    between atoms: _149  and  _152
REMARK   61  A    between atoms: _152  and  _153
REMARK   62  A    between atoms: _160  and  _161
REMARK   63  A    between atoms: _166  and  _168
REMARK   64  A    between atoms: _168  and  _169
REMARK   65  A    between atoms: _168  and  _171
REMARK   66  A    between atoms: _171  and  _172
REMARK   67  A    between atoms: _175  and  _177
REMARK   68  A    between atoms: _177  and  _178
REMARK   69  A    between atoms: _177  and  _180
REMARK   70  A    between atoms: _180  and  _181
REMARK   71  A    between atoms: _181  and  _182
REMARK   72  A    between atoms: _182  and  _183
REMARK   73  A    between atoms: _192  and  _194
REMARK   74  A    between atoms: _194  and  _195
REMARK   75  A    between atoms: _194  and  _197
REMARK   76  A    between atoms: _200  and  _202
REMARK   77  A    between atoms: _202  and  _203
REMARK   78  A    between atoms: _202  and  _205
REMARK   79  A    between atoms: _205  and  _206
REMARK   80  A    between atoms: _210  and  _211
REMARK   81  A    between atoms: _216  and  _218
REMARK   82  A    between atoms: _218  and  _219
REMARK   83  A    between atoms: _218  and  _221
REMARK   84  A    between atoms: _221  and  _222
REMARK   85  A    between atoms: _227  and  _228
REMARK   86  A    between atoms: _230  and  _232
REMARK   87  A    between atoms: _232  and  _233
REMARK   88  A    between atoms: _232  and  _235
REMARK   89  A    between atoms: _238  and  _240
REMARK   90  A    between atoms: _240  and  _241
REMARK   91  A    between atoms: _240  and  _243
REMARK   92  A    between atoms: _243  and  _244
REMARK   93  A    between atoms: _246  and  _248
REMARK   94  A    between atoms: _248  and  _249
REMARK   95  A    between atoms: _248  and  _251
REMARK   96  A    between atoms: _254  and  _256
REMARK   97  A    between atoms: _256  and  _257
REMARK   98  A    between atoms: _256  and  _259
REMARK   99  A    between atoms: _259  and  _260
REMARK  100  A    between atoms: _265  and  _266
REMARK  101  A    between atoms: _268  and  _270
REMARK  102  A    between atoms: _270  and  _271
REMARK  103  A    between atoms: _270  and  _273
REMARK  104  A    between atoms: _276  and  _278
REMARK  105  A    between atoms: _278  and  _279
REMARK  106  A    between atoms: _278  and  _281
REMARK  107  A    between atoms: _284  and  _286
REMARK  108  A    between atoms: _286  and  _287
REMARK  109  A    between atoms: _286  and  _289
REMARK  110  A    between atoms: _289  and  _290
REMARK  111  A    between atoms: _290  and  _291
REMARK  112  A    between atoms: _294  and  _295
REMARK                            x       y       z     vdW  Elec       q    Type
REMARK                         _______ _______ _______ _____ _____    ______ ____
ROOT
ATOM      1  CA  VAL A   1      -1.073  -1.482 -19.739  0.00  0.00    +0.133 C 
ENDROOT
BRANCH   1   2
ATOM      2  CB  VAL A   1      -1.105  -2.486 -20.915  0.00  0.00    +0.023 C 
ATOM      3  CG2 VAL A   1      -2.532  -2.949 -21.172  0.00  0.00    +0.002 C 
ATOM      4  CG1 VAL A   1      -0.521  -1.877 -22.171  0.00  0.00    +0.002 C 
ENDBRANCH   1   2
BRANCH   1   5
ATOM      5  N   VAL A   1      -1.741  -0.223 -20.103  0.00  0.00    -0.239 NA
ATOM      6  H   VAL A   1      -1.316   0.390 -20.827  0.00  0.00    +0.142 HD
ENDBRANCH   1   5
BRANCH   1   7
ATOM      7  C   VAL A   1       0.362  -1.267 -19.251  0.00  0.00    +0.224 C 
ATOM      8  O   VAL A   1       1.188  -2.198 -19.241  0.00  0.00    -0.287 OA
ENDBRANCH   1   7
TORSDOF 3
REMARK  Name = ../refined-set-2016/4pnu/4pnu_pocket.pdb
REMARK  112 active torsions:
REMARK  status: ('A' for Active; 'I' for Inactive)
REMARK    1  A    between atoms: _1  and  _3
REMARK    2  A    between atoms: _3  and  _4
REMARK    3  A    between atoms: _3  and  _6
REMARK    4  A    between atoms: _6  and  _7
REMARK    5  A    between atoms: _9  and  _11
REMARK    6  A    between atoms: _11  and  _12
REMARK    7  A    between atoms: _11  and  _14
REMARK    8  A    between atoms: _14  and  _15
REMARK    9  A    between atoms: _18  and  _20
REMARK   10  A    between atoms: _20  and  _21
REMARK   11  A    between atoms: _20  and  _23
REMARK   12  A    between atoms: _23  and  _24
REMARK   13  A    between atoms: _24  and  _25
REMARK   14  A    between atoms: _25  and  _26
REMARK   15  A    between atoms: _35  and  _37
REMARK   16  A    between atoms: _37  and  _38
REMARK   17  A    between atoms: _37  and  _40
REMARK   18  A    between atoms: _40  and  _41
REMARK   19  A    between atoms: _46  and  _47
REMARK   20  A    between atoms: _49  and  _51
REMARK   21  A    between atoms: _51  and  _52
REMARK   22  A    between atoms: _51  and  _54
REMARK   23  A    between atoms: _54  and  _55
REMARK   24  A    between atoms: _58  and  _60
REMARK   25  A    between atoms: _60  and  _61
REMARK   26  A    between atoms: _64  and  _66
REMARK   27  A    between atoms: _66  and  _67
REMARK   28  A    between atoms: _66  and  _69
REMARK   29  A    between atoms: _69  and  _70
REMARK   30  A    between atoms: _73  and  _75
REMARK   31  A    between atoms: _75  and  _76
REMARK   32  A    between atoms: _75  and  _78
REMARK   33  A    between atoms: _78  and  _79
REMARK   34  A    between atoms: _82  and  _84
REMARK   35  A    between atoms: _84  and  _85
REMARK   36  A    between atoms: _87  and  _89
REMARK   37  A    between atoms: _89  and  _90
REMARK   38  A    between atoms: _89  and  _92
REMARK   39  A    between atoms: _92  and  _93
REMARK   40  A    between atoms: _98  and  _100
REMARK   41  A    between atoms: _100  and  _101
REMARK   42  A    between atoms: _100  and  _103
REMARK   43  A    between atoms: _103  and  _104
REMARK   44  A    between atoms: _104  and  _105
REMARK   45  A    between atoms: _105  and  _106
REMARK   46  A    between atoms: _115  and  _117
REMARK   47  A    between atoms: _117  and  _118
REMARK   48  A    between atoms: _117  and  _120
REMARK   49  A    between atoms: _120  and  _121
REMARK   50  A    between atoms: _124  and  _126
REMARK   51  A    between atoms: _126  and  _127
REMARK   52  A    between atoms: _130  and  _132
REMARK   53  A    between atoms: _132  and  _133
REMARK   54  A    between atoms: _132  and  _135
REMARK   55  A    between atoms: _135  and  _136
REMARK   56  A    between atoms: _136  and  _137
REMARK   57  A    between atoms: _137  and  _138
REMARK   58  A    between atoms: _147  and  _149
REMARK   59  A    between atoms: _149  and  _150
REMARK   60  A    between atoms: _149  and  _152
REMARK   61  A    between atoms: _152  and  _153
REMARK   62  A    between atoms: _160  and  _161
REMARK   63  A    between atoms: _166  and  _168
REMARK   64  A    between atoms: _168  and  _169
REMARK   65  A    between atoms: _168  and  _171
REMARK   66  A    between atoms: _171  and  _172
REMARK   67  A    between atoms: _175  and  _177
REMARK   68  A    between atoms: _177  and  _178
REMARK   69  A    between atoms: _177  and  _180
REMARK   70  A    between atoms: _180  and  _181
REMARK   71  A    between atoms: _181  and  _182
REMARK   72  A    between atoms: _182  and  _183
REMARK   73  A    between atoms: _192  and  _194
REMARK   74  A    between atoms: _194  and  _195
REMARK   75  A    between atoms: _194  and  _197
REMARK   76  A    between atoms: _200  and  _202
REMARK   77  A    between atoms: _202  and  _203
REMARK   78  A    between atoms: _202  and  _205
REMARK   79  A    between atoms: _205  and  _206
REMARK   80  A    between atoms: _210  and  _211
REMARK   81  A    between atoms: _216  and  _218
REMARK   82  A    between atoms: _218  and  _219
REMARK   83  A    between atoms: _218  and  _221
REMARK   84  A    between atoms: _221  and  _222
REMARK   85  A    between atoms: _227  and  _228
REMARK   86  A    between atoms: _230  and  _232
REMARK   87  A    between atoms: _232  and  _233
REMARK   88  A    between atoms: _232  and  _235
REMARK   89  A    between atoms: _238  and  _240
REMARK   90  A    between atoms: _240  and  _241
REMARK   91  A    between atoms: _240  and  _243
REMARK   92  A    between atoms: _243  and  _244
REMARK   93  A    between atoms: _246  and  _248
REMARK   94  A    between atoms: _248  and  _249
REMARK   95  A    between atoms: _248  and  _251
REMARK   96  A    between atoms: _254  and  _256
REMARK   97  A    between atoms: _256  and  _257
REMARK   98  A    between atoms: _256  and  _259
REMARK   99  A    between atoms: _259  and  _260
REMARK  100  A    between atoms: _265  and  _266
REMARK  101  A    between atoms: _268  and  _270
REMARK  102  A    between atoms: _270  and  _271
REMARK  103  A    between atoms: _270  and  _273
REMARK  104  A    between atoms: _276  and  _278
REMARK  105  A    between atoms: _278  and  _279
REMARK  106  A    between atoms: _278  and  _281
REMARK  107  A    between atoms: _284  and  _286
REMARK  108  A    between atoms: _286  and  _287
REMARK  109  A    between atoms: _286  and  _289
REMARK  110  A    between atoms: _289  and  _290
REMARK  111  A    between atoms: _290  and  _291
REMARK  112  A    between atoms: _294  and  _295
REMARK                            x       y       z     vdW  Elec       q    Type
REMARK                         _______ _______ _______ _____ _____    ______ ____
ROOT
ATOM      1  C   SER A   1       2.713   2.987 -14.855  0.00  0.00    +0.241 C 
ATOM      2  N   VAL A   2       2.335   3.477 -13.685  0.00  0.00    -0.298 N 
ATOM      3  H   VAL A   2       2.184   2.824 -12.890  0.00  0.00    +0.150 HD
ATOM      4  O   SER A   1       2.848   3.671 -15.864  0.00  0.00    -0.274 OA
ENDROOT
BRANCH   1   5
ATOM      5  CA  SER A   1       3.022   1.490 -14.877  0.00  0.00    +0.174 C 
BRANCH   5   6
ATOM      6  N   SER A   1       2.994   0.947 -16.231  0.00  0.00    -0.236 NA
ATOM      7  H   SER A   1       3.860   0.538 -16.636  0.00  0.00    +0.142 HD
ENDBRANCH   5   6
BRANCH   5   8
ATOM      8  CB  SER A   1       4.391   1.244 -14.251  0.00  0.00    +0.163 C 
BRANCH   8   9
ATOM      9  OG  SER A   1       5.375   2.002 -14.935  0.00  0.00    -0.380 OA
ATOM     10  H   SER A   1       5.396   1.731 -15.887  0.00  0.00    +0.211 HD
ENDBRANCH   8   9
ENDBRANCH   5   8
ENDBRANCH   1   5
BRANCH   2  11
ATOM     11  CA  VAL A   2       2.126   4.891 -13.479  0.00  0.00    +0.137 C 
BRANCH  11  12
ATOM     12  CB  VAL A   2       0.698   5.137 -13.012  0.00  0.00    +0.026 C 
ATOM     13  CG2 VAL A   2       0.512   6.572 -12.547  0.00  0.00    +0.002 C 
ATOM     14  CG1 VAL A   2      -0.223   4.785 -14.159  0.00  0.00    +0.002 C 
ENDBRANCH  11  12
BRANCH  11  15
ATOM     15  C   VAL A   2       3.111   5.408 -12.456  0.00  0.00    +0.227 C 
ATOM     16  O   VAL A   2       3.418   4.723 -11.481  0.00  0.00    -0.286 OA
ENDBRANCH  11  15
ENDBRANCH   2  11
TORSDOF 7
REMARK  Name = ../refined-set-2016/4pnu/4pnu_pocket.pdb
REMARK  112 active torsions:
REMARK  status: ('A' for Active; 'I' for Inactive)
REMARK    1  A    between atoms: _1  and  _3
REMARK    2  A    between atoms: _3  and  _4
REMARK    3  A    between atoms: _3  and  _6
REMARK    4  A    between atoms: _6  and  _7
REMARK    5  A    between atoms: _9  and  _11
REMARK    6  A    between atoms: _11  and  _12
REMARK    7  A    between atoms: _11  and  _14
REMARK    8  A    between atoms: _14  and  _15
REMARK    9  A    between atoms: _18  and  _20
REMARK   10  A    between atoms: _20  and  _21
REMARK   11  A    between atoms: _20  and  _23
REMARK   12  A    between atoms: _23  and  _24
REMARK   13  A    between atoms: _24  and  _25
REMARK   14  A    between atoms: _25  and  _26
REMARK   15  A    between atoms: _35  and  _37
REMARK   16  A    between atoms: _37  and  _38
REMARK   17  A    between atoms: _37  and  _40
REMARK   18  A    between atoms: _40  and  _41
REMARK   19  A    between atoms: _46  and  _47
REMARK   20  A    between atoms: _49  and  _51
REMARK   21  A    between atoms: _51  and  _52
REMARK   22  A    between atoms: _51  and  _54
REMARK   23  A    between atoms: _54  and  _55
REMARK   24  A    between atoms: _58  and  _60
REMARK   25  A    between atoms: _60  and  _61
REMARK   26  A    between atoms: _64  and  _66
REMARK   27  A    between atoms: _66  and  _67
REMARK   28  A    between atoms: _66  and  _69
REMARK   29  A    between atoms: _69  and  _70
REMARK   30  A    between atoms: _73  and  _75
REMARK   31  A    between atoms: _75  and  _76
REMARK   32  A    between atoms: _75  and  _78
REMARK   33  A    between atoms: _78  and  _79
REMARK   34  A    between atoms: _82  and  _84
REMARK   35  A    between atoms: _84  and  _85
REMARK   36  A    between atoms: _87  and  _89
REMARK   37  A    between atoms: _89  and  _90
REMARK   38  A    between atoms: _89  and  _92
REMARK   39  A    between atoms: _92  and  _93
REMARK   40  A    between atoms: _98  and  _100
REMARK   41  A    between atoms: _100  and  _101
REMARK   42  A    between atoms: _100  and  _103
REMARK   43  A    between atoms: _103  and  _104
REMARK   44  A    between atoms: _104  and  _105
REMARK   45  A    between atoms: _105  and  _106
REMARK   46  A    between atoms: _115  and  _117
REMARK   47  A    between atoms: _117  and  _118
REMARK   48  A    between atoms: _117  and  _120
REMARK   49  A    between atoms: _120  and  _121
REMARK   50  A    between atoms: _124  and  _126
REMARK   51  A    between atoms: _126  and  _127
REMARK   52  A    between atoms: _130  and  _132
REMARK   53  A    between atoms: _132  and  _133
REMARK   54  A    between atoms: _132  and  _135
REMARK   55  A    between atoms: _135  and  _136
REMARK   56  A    between atoms: _136  and  _137
REMARK   57  A    between atoms: _137  and  _138
REMARK   58  A    between atoms: _147  and  _149
REMARK   59  A    between atoms: _149  and  _150
REMARK   60  A    between atoms: _149  and  _152
REMARK   61  A    between atoms: _152  and  _153
REMARK   62  A    between atoms: _160  and  _161
REMARK   63  A    between atoms: _166  and  _168
REMARK   64  A    between atoms: _168  and  _169
REMARK   65  A    between atoms: _168  and  _171
REMARK   66  A    between atoms: _171  and  _172
REMARK   67  A    between atoms: _175  and  _177
REMARK   68  A    between atoms: _177  and  _178
REMARK   69  A    between atoms: _177  and  _180
REMARK   70  A    between atoms: _180  and  _181
REMARK   71  A    between atoms: _181  and  _182
REMARK   72  A    between atoms: _182  and  _183
REMARK   73  A    between atoms: _192  and  _194
REMARK   74  A    between atoms: _194  and  _195
REMARK   75  A    between atoms: _194  and  _197
REMARK   76  A    between atoms: _200  and  _202
REMARK   77  A    between atoms: _202  and  _203
REMARK   78  A    between atoms: _202  and  _205
REMARK   79  A    between atoms: _205  and  _206
REMARK   80  A    between atoms: _210  and  _211
REMARK   81  A    between atoms: _216  and  _218
REMARK   82  A    between atoms: _218  and  _219
REMARK   83  A    between atoms: _218  and  _221
REMARK   84  A    between atoms: _221  and  _222
REMARK   85  A    between atoms: _227  and  _228
REMARK   86  A    between atoms: _230  and  _232
REMARK   87  A    between atoms: _232  and  _233
REMARK   88  A    between atoms: _232  and  _235
REMARK   89  A    between atoms: _238  and  _240
REMARK   90  A    between atoms: _240  and  _241
REMARK   91  A    between atoms: _240  and  _243
REMARK   92  A    between atoms: _243  and  _244
REMARK   93  A    between atoms: _246  and  _248
REMARK   94  A    between atoms: _248  and  _249
REMARK   95  A    between atoms: _248  and  _251
REMARK   96  A    between atoms: _254  and  _256
REMARK   97  A    between atoms: _256  and  _257
REMARK   98  A    between atoms: _256  and  _259
REMARK   99  A    between atoms: _259  and  _260
REMARK  100  A    between atoms: _265  and  _266
REMARK  101  A    between atoms: _268  and  _270
REMARK  102  A    between atoms: _270  and  _271
REMARK  103  A    between atoms: _270  and  _273
REMARK  104  A    between atoms: _276  and  _278
REMARK  105  A    between atoms: _278  and  _279
REMARK  106  A    between atoms: _278  and  _281
REMARK  107  A    between atoms: _284  and  _286
REMARK  108  A    between atoms: _286  and  _287
REMARK  109  A    between atoms: _286  and  _289
REMARK  110  A    between atoms: _289  and  _290
REMARK  111  A    between atoms: _290  and  _291
REMARK  112  A    between atoms: _294  and  _295
REMARK                            x       y       z     vdW  Elec       q    Type
REMARK                         _______ _______ _______ _____ _____    ______ ____
ROOT
ATOM      1  C   VAL A   2       4.848   2.407  -9.022  0.00  0.00    +0.241 C 
ATOM      2  O   VAL A   2       5.192   1.637  -8.106  0.00  0.00    -0.273 OA
ATOM      3  N   VAL A   3       3.695   2.307  -9.677  0.00  0.00    -0.297 N 
ATOM      4  H   VAL A   3       3.495   2.984 -10.441  0.00  0.00    +0.150 HD
ENDROOT
BRANCH   1   5
ATOM      5  CA  VAL A   2       5.737   3.557  -9.451  0.00  0.00    +0.148 C 
BRANCH   5   7
ATOM      6  C   TYR A   1       6.062   5.563  -8.114  0.00  0.00    +0.239 C 
ATOM      7  N   VAL A   2       6.232   4.253  -8.271  0.00  0.00    -0.297 N 
ATOM      8  H   VAL A   2       6.730   3.713  -7.534  0.00  0.00    +0.150 HD
ATOM      9  O   TYR A   1       5.521   6.290  -8.958  0.00  0.00    -0.274 OA
BRANCH   6  10
ATOM     10  CA  TYR A   1       6.567   6.152  -6.822  0.00  0.00    +0.149 C 
BRANCH  10  11
ATOM     11  N   TYR A   1       7.260   7.381  -7.140  0.00  0.00    -0.238 NA
ATOM     12  H   TYR A   1       6.780   8.069  -7.755  0.00  0.00    +0.142 HD
ENDBRANCH  10  11
BRANCH  10  13
ATOM     13  CB  TYR A   1       5.400   6.449  -5.866  0.00  0.00    +0.053 C 
BRANCH  13  14
ATOM     14  CG  TYR A   1       5.916   7.074  -4.593  0.00  0.00    -0.020 A 
ATOM     15  CD2 TYR A   1       6.387   6.280  -3.560  0.00  0.00    -0.001 A 
ATOM     16  CE2 TYR A   1       6.917   6.832  -2.408  0.00  0.00    +0.036 A 
ATOM     17  CZ  TYR A   1       6.999   8.201  -2.285  0.00  0.00    +0.134 A 
ATOM     18  CE1 TYR A   1       6.548   9.014  -3.309  0.00  0.00    +0.036 A 
ATOM     19  CD1 TYR A   1       6.025   8.448  -4.463  0.00  0.00    -0.001 A 
BRANCH  17  20
ATOM     20  OH  TYR A   1       7.517   8.753  -1.126  0.00  0.00    -0.506 OA
ATOM     21  HH  TYR A   1       7.788   8.028  -0.509  0.00  0.00    +0.292 HD
ENDBRANCH  17  20
ENDBRANCH  13  14
ENDBRANCH  10  13
ENDBRANCH   6  10
ENDBRANCH   5   7
BRANCH   5  22
ATOM     22  CB  VAL A   2       6.878   3.026 -10.334  0.00  0.00    +0.027 C 
ATOM     23  CG2 VAL A   2       7.869   4.137 -10.633  0.00  0.00    +0.002 C 
ATOM     24  CG1 VAL A   2       6.325   2.442 -11.625  0.00  0.00    +0.002 C 
ENDBRANCH   5  22
ENDBRANCH   1   5
BRANCH   3  25
ATOM     25  CA  VAL A   3       2.706   1.294  -9.370  0.00  0.00    +0.149 C 
BRANCH  25  26
ATOM     26  C   VAL A   3       2.316   0.573 -10.665  0.00  0.00    +0.241 C 
ATOM     27  N   MET A   4       2.380  -0.750 -10.629  0.00  0.00    -0.297 N 
ATOM     28  H   MET A   4       2.658  -1.229  -9.749  0.00  0.00    +0.150 HD
ATOM     29  O   VAL A   3       1.997   1.200 -11.665  0.00  0.00    -0.273 OA
BRANCH  27  30
ATOM     30  CA  MET A   4       2.065  -1.538 -11.809  0.00  0.00    +0.150 C 
BRANCH  30  31
ATOM     31  C   MET A   4       0.551  -1.507 -12.076  0.00  0.00    +0.244 C 
ATOM     32  O   MET A   4      -0.263  -1.350 -11.164  0.00  0.00    -0.273 OA
ATOM     33  N   PRO A   5       0.170  -1.616 -13.356  0.00  0.00    -0.273 N 
ATOM     34  CA  PRO A   5      -1.252  -1.544 -13.593  0.00  0.00    +0.140 C 
ATOM     35  CB  PRO A   5      -1.334  -1.134 -15.065  0.00  0.00    +0.030 C 
ATOM     36  CG  PRO A   5      -0.132  -1.774 -15.683  0.00  0.00    +0.024 C 
ATOM     37  CD  PRO A   5       0.902  -1.963 -14.592  0.00  0.00    +0.094 C 
BRANCH  34  38
ATOM     38  C   PRO A   5      -1.871  -2.912 -13.354  0.00  0.00    +0.227 C 
ATOM     39  O   PRO A   5      -1.159  -3.922 -13.279  0.00  0.00    -0.286 OA
ENDBRANCH  34  38
ENDBRANCH  30  31
BRANCH  30  40
ATOM     40  CB  MET A   4       2.596  -2.969 -11.650  0.00  0.00    +0.041 C 
BRANCH  40  41
ATOM     41  CG  MET A   4       3.244  -3.570 -12.892  0.00  0.00    +0.060 C 
BRANCH  41  42
ATOM     42  SD  MET A   4       4.243  -2.498 -13.966  0.00  0.00    -0.139 S 
ATOM     43  CE  MET A   4       3.953  -3.228 -15.574  0.00  0.00    +0.069 C 
ENDBRANCH  41  42
ENDBRANCH  40  41
ENDBRANCH  30  40
ENDBRANCH  27  30
ENDBRANCH  25  26
BRANCH  25  44
ATOM     44  CB  VAL A   3       1.469   1.927  -8.692  0.00  0.00    +0.027 C 
ATOM     45  CG2 VAL A   3       1.872   2.623  -7.401  0.00  0.00    +0.002 C 
ATOM     46  CG1 VAL A   3       0.383   0.891  -8.434  0.00  0.00    +0.002 C 
ENDBRANCH  25  44
ENDBRANCH   3  25
TORSDOF 17
REMARK  Name = ../refined-set-2016/4pnu/4pnu_pocket.pdb
REMARK  112 active torsions:
REMARK  status: ('A' for Active; 'I' for Inactive)
REMARK    1  A    between atoms: _1  and  _3
REMARK    2  A    between atoms: _3  and  _4
REMARK    3  A    between atoms: _3  and  _6
REMARK    4  A    between atoms: _6  and  _7
REMARK    5  A    between atoms: _9  and  _11
REMARK    6  A    between atoms: _11  and  _12
REMARK    7  A    between atoms: _11  and  _14
REMARK    8  A    between atoms: _14  and  _15
REMARK    9  A    between atoms: _18  and  _20
REMARK   10  A    between atoms: _20  and  _21
REMARK   11  A    between atoms: _20  and  _23
REMARK   12  A    between atoms: _23  and  _24
REMARK   13  A    between atoms: _24  and  _25
REMARK   14  A    between atoms: _25  and  _26
REMARK   15  A    between atoms: _35  and  _37
REMARK   16  A    between atoms: _37  and  _38
REMARK   17  A    between atoms: _37  and  _40
REMARK   18  A    between atoms: _40  and  _41
REMARK   19  A    between atoms: _46  and  _47
REMARK   20  A    between atoms: _49  and  _51
REMARK   21  A    between atoms: _51  and  _52
REMARK   22  A    between atoms: _51  and  _54
REMARK   23  A    between atoms: _54  and  _55
REMARK   24  A    between atoms: _58  and  _60
REMARK   25  A    between atoms: _60  and  _61
REMARK   26  A    between atoms: _64  and  _66
REMARK   27  A    between atoms: _66  and  _67
REMARK   28  A    between atoms: _66  and  _69
REMARK   29  A    between atoms: _69  and  _70
REMARK   30  A    between atoms: _73  and  _75
REMARK   31  A    between atoms: _75  and  _76
REMARK   32  A    between atoms: _75  and  _78
REMARK   33  A    between atoms: _78  and  _79
REMARK   34  A    between atoms: _82  and  _84
REMARK   35  A    between atoms: _84  and  _85
REMARK   36  A    between atoms: _87  and  _89
REMARK   37  A    between atoms: _89  and  _90
REMARK   38  A    between atoms: _89  and  _92
REMARK   39  A    between atoms: _92  and  _93
REMARK   40  A    between atoms: _98  and  _100
REMARK   41  A    between atoms: _100  and  _101
REMARK   42  A    between atoms: _100  and  _103
REMARK   43  A    between atoms: _103  and  _104
REMARK   44  A    between atoms: _104  and  _105
REMARK   45  A    between atoms: _105  and  _106
REMARK   46  A    between atoms: _115  and  _117
REMARK   47  A    between atoms: _117  and  _118
REMARK   48  A    between atoms: _117  and  _120
REMARK   49  A    between atoms: _120  and  _121
REMARK   50  A    between atoms: _124  and  _126
REMARK   51  A    between atoms: _126  and  _127
REMARK   52  A    between atoms: _130  and  _132
REMARK   53  A    between atoms: _132  and  _133
REMARK   54  A    between atoms: _132  and  _135
REMARK   55  A    between atoms: _135  and  _136
REMARK   56  A    between atoms: _136  and  _137
REMARK   57  A    between atoms: _137  and  _138
REMARK   58  A    between atoms: _147  and  _149
REMARK   59  A    between atoms: _149  and  _150
REMARK   60  A    between atoms: _149  and  _152
REMARK   61  A    between atoms: _152  and  _153
REMARK   62  A    between atoms: _160  and  _161
REMARK   63  A    between atoms: _166  and  _168
REMARK   64  A    between atoms: _168  and  _169
REMARK   65  A    between atoms: _168  and  _171
REMARK   66  A    between atoms: _171  and  _172
REMARK   67  A    between atoms: _175  and  _177
REMARK   68  A    between atoms: _177  and  _178
REMARK   69  A    between atoms: _177  and  _180
REMARK   70  A    between atoms: _180  and  _181
REMARK   71  A    between atoms: _181  and  _182
REMARK   72  A    between atoms: _182  and  _183
REMARK   73  A    between atoms: _192  and  _194
REMARK   74  A    between atoms: _194  and  _195
REMARK   75  A    between atoms: _194  and  _197
REMARK   76  A    between atoms: _200  and  _202
REMARK   77  A    between atoms: _202  and  _203
REMARK   78  A    between atoms: _202  and  _205
REMARK   79  A    between atoms: _205  and  _206
REMARK   80  A    between atoms: _210  and  _211
REMARK   81  A    between atoms: _216  and  _218
REMARK   82  A    between atoms: _218  and  _219
REMARK   83  A    between atoms: _218  and  _221
REMARK   84  A    between atoms: _221  and  _222
REMARK   85  A    between atoms: _227  and  _228
REMARK   86  A    between atoms: _230  and  _232
REMARK   87  A    between atoms: _232  and  _233
REMARK   88  A    between atoms: _232  and  _235
REMARK   89  A    between atoms: _238  and  _240
REMARK   90  A    between atoms: _240  and  _241
REMARK   91  A    between atoms: _240  and  _243
REMARK   92  A    between atoms: _243  and  _244
REMARK   93  A    between atoms: _246  and  _248
REMARK   94  A    between atoms: _248  and  _249
REMARK   95  A    between atoms: _248  and  _251
REMARK   96  A    between atoms: _254  and  _256
REMARK   97  A    between atoms: _256  and  _257
REMARK   98  A    between atoms: _256  and  _259
REMARK   99  A    between atoms: _259  and  _260
REMARK  100  A    between atoms: _265  and  _266
REMARK  101  A    between atoms: _268  and  _270
REMARK  102  A    between atoms: _270  and  _271
REMARK  103  A    between atoms: _270  and  _273
REMARK  104  A    between atoms: _276  and  _278
REMARK  105  A    between atoms: _278  and  _279
REMARK  106  A    between atoms: _278  and  _281
REMARK  107  A    between atoms: _284  and  _286
REMARK  108  A    between atoms: _286  and  _287
REMARK  109  A    between atoms: _286  and  _289
REMARK  110  A    between atoms: _289  and  _290
REMARK  111  A    between atoms: _290  and  _291
REMARK  112  A    between atoms: _294  and  _295
REMARK                            x       y       z     vdW  Elec       q    Type
REMARK                         _______ _______ _______ _____ _____    ______ ____
ROOT
ATOM      1  O   HOH     1       2.525   1.598  -3.583  0.00  0.00    +0.000 OA
ENDROOT
TORSDOF 0
REMARK  Name = ../refined-set-2016/4pnu/4pnu_pocket.pdb
REMARK  112 active torsions:
REMARK  status: ('A' for Active; 'I' for Inactive)
REMARK    1  A    between atoms: _1  and  _3
REMARK    2  A    between atoms: _3  and  _4
REMARK    3  A    between atoms: _3  and  _6
REMARK    4  A    between atoms: _6  and  _7
REMARK    5  A    between atoms: _9  and  _11
REMARK    6  A    between atoms: _11  and  _12
REMARK    7  A    between atoms: _11  and  _14
REMARK    8  A    between atoms: _14  and  _15
REMARK    9  A    between atoms: _18  and  _20
REMARK   10  A    between atoms: _20  and  _21
REMARK   11  A    between atoms: _20  and  _23
REMARK   12  A    between atoms: _23  and  _24
REMARK   13  A    between atoms: _24  and  _25
REMARK   14  A    between atoms: _25  and  _26
REMARK   15  A    between atoms: _35  and  _37
REMARK   16  A    between atoms: _37  and  _38
REMARK   17  A    between atoms: _37  and  _40
REMARK   18  A    between atoms: _40  and  _41
REMARK   19  A    between atoms: _46  and  _47
REMARK   20  A    between atoms: _49  and  _51
REMARK   21  A    between atoms: _51  and  _52
REMARK   22  A    between atoms: _51  and  _54
REMARK   23  A    between atoms: _54  and  _55
REMARK   24  A    between atoms: _58  and  _60
REMARK   25  A    between atoms: _60  and  _61
REMARK   26  A    between atoms: _64  and  _66
REMARK   27  A    between atoms: _66  and  _67
REMARK   28  A    between atoms: _66  and  _69
REMARK   29  A    between atoms: _69  and  _70
REMARK   30  A    between atoms: _73  and  _75
REMARK   31  A    between atoms: _75  and  _76
REMARK   32  A    between atoms: _75  and  _78
REMARK   33  A    between atoms: _78  and  _79
REMARK   34  A    between atoms: _82  and  _84
REMARK   35  A    between atoms: _84  and  _85
REMARK   36  A    between atoms: _87  and  _89
REMARK   37  A    between atoms: _89  and  _90
REMARK   38  A    between atoms: _89  and  _92
REMARK   39  A    between atoms: _92  and  _93
REMARK   40  A    between atoms: _98  and  _100
REMARK   41  A    between atoms: _100  and  _101
REMARK   42  A    between atoms: _100  and  _103
REMARK   43  A    between atoms: _103  and  _104
REMARK   44  A    between atoms: _104  and  _105
REMARK   45  A    between atoms: _105  and  _106
REMARK   46  A    between atoms: _115  and  _117
REMARK   47  A    between atoms: _117  and  _118
REMARK   48  A    between atoms: _117  and  _120
REMARK   49  A    between atoms: _120  and  _121
REMARK   50  A    between atoms: _124  and  _126
REMARK   51  A    between atoms: _126  and  _127
REMARK   52  A    between atoms: _130  and  _132
REMARK   53  A    between atoms: _132  and  _133
REMARK   54  A    between atoms: _132  and  _135
REMARK   55  A    between atoms: _135  and  _136
REMARK   56  A    between atoms: _136  and  _137
REMARK   57  A    between atoms: _137  and  _138
REMARK   58  A    between atoms: _147  and  _149
REMARK   59  A    between atoms: _149  and  _150
REMARK   60  A    between atoms: _149  and  _152
REMARK   61  A    between atoms: _152  and  _153
REMARK   62  A    between atoms: _160  and  _161
REMARK   63  A    between atoms: _166  and  _168
REMARK   64  A    between atoms: _168  and  _169
REMARK   65  A    between atoms: _168  and  _171
REMARK   66  A    between atoms: _171  and  _172
REMARK   67  A    between atoms: _175  and  _177
REMARK   68  A    between atoms: _177  and  _178
REMARK   69  A    between atoms: _177  and  _180
REMARK   70  A    between atoms: _180  and  _181
REMARK   71  A    between atoms: _181  and  _182
REMARK   72  A    between atoms: _182  and  _183
REMARK   73  A    between atoms: _192  and  _194
REMARK   74  A    between atoms: _194  and  _195
REMARK   75  A    between atoms: _194  and  _197
REMARK   76  A    between atoms: _200  and  _202
REMARK   77  A    between atoms: _202  and  _203
REMARK   78  A    between atoms: _202  and  _205
REMARK   79  A    between atoms: _205  and  _206
REMARK   80  A    between atoms: _210  and  _211
REMARK   81  A    between atoms: _216  and  _218
REMARK   82  A    between atoms: _218  and  _219
REMARK   83  A    between atoms: _218  and  _221
REMARK   84  A    between atoms: _221  and  _222
REMARK   85  A    between atoms: _227  and  _228
REMARK   86  A    between atoms: _230  and  _232
REMARK   87  A    between atoms: _232  and  _233
REMARK   88  A    between atoms: _232  and  _235
REMARK   89  A    between atoms: _238  and  _240
REMARK   90  A    between atoms: _240  and  _241
REMARK   91  A    between atoms: _240  and  _243
REMARK   92  A    between atoms: _243  and  _244
REMARK   93  A    between atoms: _246  and  _248
REMARK   94  A    between atoms: _248  and  _249
REMARK   95  A    between atoms: _248  and  _251
REMARK   96  A    between atoms: _254  and  _256
REMARK   97  A    between atoms: _256  and  _257
REMARK   98  A    between atoms: _256  and  _259
REMARK   99  A    between atoms: _259  and  _260
REMARK  100  A    between atoms: _265  and  _266
REMARK  101  A    between atoms: _268  and  _270
REMARK  102  A    between atoms: _270  and  _271
REMARK  103  A    between atoms: _270  and  _273
REMARK  104  A    between atoms: _276  and  _278
REMARK  105  A    between atoms: _278  and  _279
REMARK  106  A    between atoms: _278  and  _281
REMARK  107  A    between atoms: _284  and  _286
REMARK  108  A    between atoms: _286  and  _287
REMARK  109  A    between atoms: _286  and  _289
REMARK  110  A    between atoms: _289  and  _290
REMARK  111  A    between atoms: _290  and  _291
REMARK  112  A    between atoms: _294  and  _295
REMARK                            x       y       z     vdW  Elec       q    Type
REMARK                         _______ _______ _______ _____ _____    ______ ____
ROOT
ATOM      1  O   HOH     1       5.207   2.672  -4.122  0.00  0.00    +0.000 OA
ENDROOT
TORSDOF 0
REMARK  Name = ../refined-set-2016/4pnu/4pnu_pocket.pdb
REMARK  112 active torsions:
REMARK  status: ('A' for Active; 'I' for Inactive)
REMARK    1  A    between atoms: _1  and  _3
REMARK    2  A    between atoms: _3  and  _4
REMARK    3  A    between atoms: _3  and  _6
REMARK    4  A    between atoms: _6  and  _7
REMARK    5  A    between atoms: _9  and  _11
REMARK    6  A    between atoms: _11  and  _12
REMARK    7  A    between atoms: _11  and  _14
REMARK    8  A    between atoms: _14  and  _15
REMARK    9  A    between atoms: _18  and  _20
REMARK   10  A    between atoms: _20  and  _21
REMARK   11  A    between atoms: _20  and  _23
REMARK   12  A    between atoms: _23  and  _24
REMARK   13  A    between atoms: _24  and  _25
REMARK   14  A    between atoms: _25  and  _26
REMARK   15  A    between atoms: _35  and  _37
REMARK   16  A    between atoms: _37  and  _38
REMARK   17  A    between atoms: _37  and  _40
REMARK   18  A    between atoms: _40  and  _41
REMARK   19  A    between atoms: _46  and  _47
REMARK   20  A    between atoms: _49  and  _51
REMARK   21  A    between atoms: _51  and  _52
REMARK   22  A    between atoms: _51  and  _54
REMARK   23  A    between atoms: _54  and  _55
REMARK   24  A    between atoms: _58  and  _60
REMARK   25  A    between atoms: _60  and  _61
REMARK   26  A    between atoms: _64  and  _66
REMARK   27  A    between atoms: _66  and  _67
REMARK   28  A    between atoms: _66  and  _69
REMARK   29  A    between atoms: _69  and  _70
REMARK   30  A    between atoms: _73  and  _75
REMARK   31  A    between atoms: _75  and  _76
REMARK   32  A    between atoms: _75  and  _78
REMARK   33  A    between atoms: _78  and  _79
REMARK   34  A    between atoms: _82  and  _84
REMARK   35  A    between atoms: _84  and  _85
REMARK   36  A    between atoms: _87  and  _89
REMARK   37  A    between atoms: _89  and  _90
REMARK   38  A    between atoms: _89  and  _92
REMARK   39  A    between atoms: _92  and  _93
REMARK   40  A    between atoms: _98  and  _100
REMARK   41  A    between atoms: _100  and  _101
REMARK   42  A    between atoms: _100  and  _103
REMARK   43  A    between atoms: _103  and  _104
REMARK   44  A    between atoms: _104  and  _105
REMARK   45  A    between atoms: _105  and  _106
REMARK   46  A    between atoms: _115  and  _117
REMARK   47  A    between atoms: _117  and  _118
REMARK   48  A    between atoms: _117  and  _120
REMARK   49  A    between atoms: _120  and  _121
REMARK   50  A    between atoms: _124  and  _126
REMARK   51  A    between atoms: _126  and  _127
REMARK   52  A    between atoms: _130  and  _132
REMARK   53  A    between atoms: _132  and  _133
REMARK   54  A    between atoms: _132  and  _135
REMARK   55  A    between atoms: _135  and  _136
REMARK   56  A    between atoms: _136  and  _137
REMARK   57  A    between atoms: _137  and  _138
REMARK   58  A    between atoms: _147  and  _149
REMARK   59  A    between atoms: _149  and  _150
REMARK   60  A    between atoms: _149  and  _152
REMARK   61  A    between atoms: _152  and  _153
REMARK   62  A    between atoms: _160  and  _161
REMARK   63  A    between atoms: _166  and  _168
REMARK   64  A    between atoms: _168  and  _169
REMARK   65  A    between atoms: _168  and  _171
REMARK   66  A    between atoms: _171  and  _172
REMARK   67  A    between atoms: _175  and  _177
REMARK   68  A    between atoms: _177  and  _178
REMARK   69  A    between atoms: _177  and  _180
REMARK   70  A    between atoms: _180  and  _181
REMARK   71  A    between atoms: _181  and  _182
REMARK   72  A    between atoms: _182  and  _183
REMARK   73  A    between atoms: _192  and  _194
REMARK   74  A    between atoms: _194  and  _195
REMARK   75  A    between atoms: _194  and  _197
REMARK   76  A    between atoms: _200  and  _202
REMARK   77  A    between atoms: _202  and  _203
REMARK   78  A    between atoms: _202  and  _205
REMARK   79  A    between atoms: _205  and  _206
REMARK   80  A    between atoms: _210  and  _211
REMARK   81  A    between atoms: _216  and  _218
REMARK   82  A    between atoms: _218  and  _219
REMARK   83  A    between atoms: _218  and  _221
REMARK   84  A    between atoms: _221  and  _222
REMARK   85  A    between atoms: _227  and  _228
REMARK   86  A    between atoms: _230  and  _232
REMARK   87  A    between atoms: _232  and  _233
REMARK   88  A    between atoms: _232  and  _235
REMARK   89  A    between atoms: _238  and  _240
REMARK   90  A    between atoms: _240  and  _241
REMARK   91  A    between atoms: _240  and  _243
REMARK   92  A    between atoms: _243  and  _244
REMARK   93  A    between atoms: _246  and  _248
REMARK   94  A    between atoms: _248  and  _249
REMARK   95  A    between atoms: _248  and  _251
REMARK   96  A    between atoms: _254  and  _256
REMARK   97  A    between atoms: _256  and  _257
REMARK   98  A    between atoms: _256  and  _259
REMARK   99  A    between atoms: _259  and  _260
REMARK  100  A    between atoms: _265  and  _266
REMARK  101  A    between atoms: _268  and  _270
REMARK  102  A    between atoms: _270  and  _271
REMARK  103  A    between atoms: _270  and  _273
REMARK  104  A    between atoms: _276  and  _278
REMARK  105  A    between atoms: _278  and  _279
REMARK  106  A    between atoms: _278  and  _281
REMARK  107  A    between atoms: _284  and  _286
REMARK  108  A    between atoms: _286  and  _287
REMARK  109  A    between atoms: _286  and  _289
REMARK  110  A    between atoms: _289  and  _290
REMARK  111  A    between atoms: _290  and  _291
REMARK  112  A    between atoms: _294  and  _295
REMARK                            x       y       z     vdW  Elec       q    Type
REMARK                         _______ _______ _______ _____ _____    ______ ____
ROOT
ATOM      1  O   HOH     1       6.620  -8.956  -2.632  0.00  0.00    +0.000 OA
ENDROOT
TORSDOF 0
REMARK  Name = ../refined-set-2016/4pnu/4pnu_pocket.pdb
REMARK  112 active torsions:
REMARK  status: ('A' for Active; 'I' for Inactive)
REMARK    1  A    between atoms: _1  and  _3
REMARK    2  A    between atoms: _3  and  _4
REMARK    3  A    between atoms: _3  and  _6
REMARK    4  A    between atoms: _6  and  _7
REMARK    5  A    between atoms: _9  and  _11
REMARK    6  A    between atoms: _11  and  _12
REMARK    7  A    between atoms: _11  and  _14
REMARK    8  A    between atoms: _14  and  _15
REMARK    9  A    between atoms: _18  and  _20
REMARK   10  A    between atoms: _20  and  _21
REMARK   11  A    between atoms: _20  and  _23
REMARK   12  A    between atoms: _23  and  _24
REMARK   13  A    between atoms: _24  and  _25
REMARK   14  A    between atoms: _25  and  _26
REMARK   15  A    between atoms: _35  and  _37
REMARK   16  A    between atoms: _37  and  _38
REMARK   17  A    between atoms: _37  and  _40
REMARK   18  A    between atoms: _40  and  _41
REMARK   19  A    between atoms: _46  and  _47
REMARK   20  A    between atoms: _49  and  _51
REMARK   21  A    between atoms: _51  and  _52
REMARK   22  A    between atoms: _51  and  _54
REMARK   23  A    between atoms: _54  and  _55
REMARK   24  A    between atoms: _58  and  _60
REMARK   25  A    between atoms: _60  and  _61
REMARK   26  A    between atoms: _64  and  _66
REMARK   27  A    between atoms: _66  and  _67
REMARK   28  A    between atoms: _66  and  _69
REMARK   29  A    between atoms: _69  and  _70
REMARK   30  A    between atoms: _73  and  _75
REMARK   31  A    between atoms: _75  and  _76
REMARK   32  A    between atoms: _75  and  _78
REMARK   33  A    between atoms: _78  and  _79
REMARK   34  A    between atoms: _82  and  _84
REMARK   35  A    between atoms: _84  and  _85
REMARK   36  A    between atoms: _87  and  _89
REMARK   37  A    between atoms: _89  and  _90
REMARK   38  A    between atoms: _89  and  _92
REMARK   39  A    between atoms: _92  and  _93
REMARK   40  A    between atoms: _98  and  _100
REMARK   41  A    between atoms: _100  and  _101
REMARK   42  A    between atoms: _100  and  _103
REMARK   43  A    between atoms: _103  and  _104
REMARK   44  A    between atoms: _104  and  _105
REMARK   45  A    between atoms: _105  and  _106
REMARK   46  A    between atoms: _115  and  _117
REMARK   47  A    between atoms: _117  and  _118
REMARK   48  A    between atoms: _117  and  _120
REMARK   49  A    between atoms: _120  and  _121
REMARK   50  A    between atoms: _124  and  _126
REMARK   51  A    between atoms: _126  and  _127
REMARK   52  A    between atoms: _130  and  _132
REMARK   53  A    between atoms: _132  and  _133
REMARK   54  A    between atoms: _132  and  _135
REMARK   55  A    between atoms: _135  and  _136
REMARK   56  A    between atoms: _136  and  _137
REMARK   57  A    between atoms: _137  and  _138
REMARK   58  A    between atoms: _147  and  _149
REMARK   59  A    between atoms: _149  and  _150
REMARK   60  A    between atoms: _149  and  _152
REMARK   61  A    between atoms: _152  and  _153
REMARK   62  A    between atoms: _160  and  _161
REMARK   63  A    between atoms: _166  and  _168
REMARK   64  A    between atoms: _168  and  _169
REMARK   65  A    between atoms: _168  and  _171
REMARK   66  A    between atoms: _171  and  _172
REMARK   67  A    between atoms: _175  and  _177
REMARK   68  A    between atoms: _177  and  _178
REMARK   69  A    between atoms: _177  and  _180
REMARK   70  A    between atoms: _180  and  _181
REMARK   71  A    between atoms: _181  and  _182
REMARK   72  A    between atoms: _182  and  _183
REMARK   73  A    between atoms: _192  and  _194
REMARK   74  A    between atoms: _194  and  _195
REMARK   75  A    between atoms: _194  and  _197
REMARK   76  A    between atoms: _200  and  _202
REMARK   77  A    between atoms: _202  and  _203
REMARK   78  A    between atoms: _202  and  _205
REMARK   79  A    between atoms: _205  and  _206
REMARK   80  A    between atoms: _210  and  _211
REMARK   81  A    between atoms: _216  and  _218
REMARK   82  A    between atoms: _218  and  _219
REMARK   83  A    between atoms: _218  and  _221
REMARK   84  A    between atoms: _221  and  _222
REMARK   85  A    between atoms: _227  and  _228
REMARK   86  A    between atoms: _230  and  _232
REMARK   87  A    between atoms: _232  and  _233
REMARK   88  A    between atoms: _232  and  _235
REMARK   89  A    between atoms: _238  and  _240
REMARK   90  A    between atoms: _240  and  _241
REMARK   91  A    between atoms: _240  and  _243
REMARK   92  A    between atoms: _243  and  _244
REMARK   93  A    between atoms: _246  and  _248
REMARK   94  A    between atoms: _248  and  _249
REMARK   95  A    between atoms: _248  and  _251
REMARK   96  A    between atoms: _254  and  _256
REMARK   97  A    between atoms: _256  and  _257
REMARK   98  A    between atoms: _256  and  _259
REMARK   99  A    between atoms: _259  and  _260
REMARK  100  A    between atoms: _265  and  _266
REMARK  101  A    between atoms: _268  and  _270
REMARK  102  A    between atoms: _270  and  _271
REMARK  103  A    between atoms: _270  and  _273
REMARK  104  A    between atoms: _276  and  _278
REMARK  105  A    between atoms: _278  and  _279
REMARK  106  A    between atoms: _278  and  _281
REMARK  107  A    between atoms: _284  and  _286
REMARK  108  A    between atoms: _286  and  _287
REMARK  109  A    between atoms: _286  and  _289
REMARK  110  A    between atoms: _289  and  _290
REMARK  111  A    between atoms: _290  and  _291
REMARK  112  A    between atoms: _294  and  _295
REMARK                            x       y       z     vdW  Elec       q    Type
REMARK                         _______ _______ _______ _____ _____    ______ ____
ROOT
ATOM      1  O   HOH     1      12.880  -3.408  -1.537  0.00  0.00    +0.000 OA
ENDROOT
TORSDOF 0
REMARK  Name = ../refined-set-2016/4pnu/4pnu_pocket.pdb
REMARK  112 active torsions:
REMARK  status: ('A' for Active; 'I' for Inactive)
REMARK    1  A    between atoms: _1  and  _3
REMARK    2  A    between atoms: _3  and  _4
REMARK    3  A    between atoms: _3  and  _6
REMARK    4  A    between atoms: _6  and  _7
REMARK    5  A    between atoms: _9  and  _11
REMARK    6  A    between atoms: _11  and  _12
REMARK    7  A    between atoms: _11  and  _14
REMARK    8  A    between atoms: _14  and  _15
REMARK    9  A    between atoms: _18  and  _20
REMARK   10  A    between atoms: _20  and  _21
REMARK   11  A    between atoms: _20  and  _23
REMARK   12  A    between atoms: _23  and  _24
REMARK   13  A    between atoms: _24  and  _25
REMARK   14  A    between atoms: _25  and  _26
REMARK   15  A    between atoms: _35  and  _37
REMARK   16  A    between atoms: _37  and  _38
REMARK   17  A    between atoms: _37  and  _40
REMARK   18  A    between atoms: _40  and  _41
REMARK   19  A    between atoms: _46  and  _47
REMARK   20  A    between atoms: _49  and  _51
REMARK   21  A    between atoms: _51  and  _52
REMARK   22  A    between atoms: _51  and  _54
REMARK   23  A    between atoms: _54  and  _55
REMARK   24  A    between atoms: _58  and  _60
REMARK   25  A    between atoms: _60  and  _61
REMARK   26  A    between atoms: _64  and  _66
REMARK   27  A    between atoms: _66  and  _67
REMARK   28  A    between atoms: _66  and  _69
REMARK   29  A    between atoms: _69  and  _70
REMARK   30  A    between atoms: _73  and  _75
REMARK   31  A    between atoms: _75  and  _76
REMARK   32  A    between atoms: _75  and  _78
REMARK   33  A    between atoms: _78  and  _79
REMARK   34  A    between atoms: _82  and  _84
REMARK   35  A    between atoms: _84  and  _85
REMARK   36  A    between atoms: _87  and  _89
REMARK   37  A    between atoms: _89  and  _90
REMARK   38  A    between atoms: _89  and  _92
REMARK   39  A    between atoms: _92  and  _93
REMARK   40  A    between atoms: _98  and  _100
REMARK   41  A    between atoms: _100  and  _101
REMARK   42  A    between atoms: _100  and  _103
REMARK   43  A    between atoms: _103  and  _104
REMARK   44  A    between atoms: _104  and  _105
REMARK   45  A    between atoms: _105  and  _106
REMARK   46  A    between atoms: _115  and  _117
REMARK   47  A    between atoms: _117  and  _118
REMARK   48  A    between atoms: _117  and  _120
REMARK   49  A    between atoms: _120  and  _121
REMARK   50  A    between atoms: _124  and  _126
REMARK   51  A    between atoms: _126  and  _127
REMARK   52  A    between atoms: _130  and  _132
REMARK   53  A    between atoms: _132  and  _133
REMARK   54  A    between atoms: _132  and  _135
REMARK   55  A    between atoms: _135  and  _136
REMARK   56  A    between atoms: _136  and  _137
REMARK   57  A    between atoms: _137  and  _138
REMARK   58  A    between atoms: _147  and  _149
REMARK   59  A    between atoms: _149  and  _150
REMARK   60  A    between atoms: _149  and  _152
REMARK   61  A    between atoms: _152  and  _153
REMARK   62  A    between atoms: _160  and  _161
REMARK   63  A    between atoms: _166  and  _168
REMARK   64  A    between atoms: _168  and  _169
REMARK   65  A    between atoms: _168  and  _171
REMARK   66  A    between atoms: _171  and  _172
REMARK   67  A    between atoms: _175  and  _177
REMARK   68  A    between atoms: _177  and  _178
REMARK   69  A    between atoms: _177  and  _180
REMARK   70  A    between atoms: _180  and  _181
REMARK   71  A    between atoms: _181  and  _182
REMARK   72  A    between atoms: _182  and  _183
REMARK   73  A    between atoms: _192  and  _194
REMARK   74  A    between atoms: _194  and  _195
REMARK   75  A    between atoms: _194  and  _197
REMARK   76  A    between atoms: _200  and  _202
REMARK   77  A    between atoms: _202  and  _203
REMARK   78  A    between atoms: _202  and  _205
REMARK   79  A    between atoms: _205  and  _206
REMARK   80  A    between atoms: _210  and  _211
REMARK   81  A    between atoms: _216  and  _218
REMARK   82  A    between atoms: _218  and  _219
REMARK   83  A    between atoms: _218  and  _221
REMARK   84  A    between atoms: _221  and  _222
REMARK   85  A    between atoms: _227  and  _228
REMARK   86  A    between atoms: _230  and  _232
REMARK   87  A    between atoms: _232  and  _233
REMARK   88  A    between atoms: _232  and  _235
REMARK   89  A    between atoms: _238  and  _240
REMARK   90  A    between atoms: _240  and  _241
REMARK   91  A    between atoms: _240  and  _243
REMARK   92  A    between atoms: _243  and  _244
REMARK   93  A    between atoms: _246  and  _248
REMARK   94  A    between atoms: _248  and  _249
REMARK   95  A    between atoms: _248  and  _251
REMARK   96  A    between atoms: _254  and  _256
REMARK   97  A    between atoms: _256  and  _257
REMARK   98  A    between atoms: _256  and  _259
REMARK   99  A    between atoms: _259  and  _260
REMARK  100  A    between atoms: _265  and  _266
REMARK  101  A    between atoms: _268  and  _270
REMARK  102  A    between atoms: _270  and  _271
REMARK  103  A    between atoms: _270  and  _273
REMARK  104  A    between atoms: _276  and  _278
REMARK  105  A    between atoms: _278  and  _279
REMARK  106  A    between atoms: _278  and  _281
REMARK  107  A    between atoms: _284  and  _286
REMARK  108  A    between atoms: _286  and  _287
REMARK  109  A    between atoms: _286  and  _289
REMARK  110  A    between atoms: _289  and  _290
REMARK  111  A    between atoms: _290  and  _291
REMARK  112  A    between atoms: _294  and  _295
REMARK                            x       y       z     vdW  Elec       q    Type
REMARK                         _______ _______ _______ _____ _____    ______ ____
ROOT
ATOM      1  O   HOH     1       7.579 -14.765  -2.498  0.00  0.00    +0.000 OA
ENDROOT
TORSDOF 0
REMARK  Name = ../refined-set-2016/4pnu/4pnu_pocket.pdb
REMARK  112 active torsions:
REMARK  status: ('A' for Active; 'I' for Inactive)
REMARK    1  A    between atoms: _1  and  _3
REMARK    2  A    between atoms: _3  and  _4
REMARK    3  A    between atoms: _3  and  _6
REMARK    4  A    between atoms: _6  and  _7
REMARK    5  A    between atoms: _9  and  _11
REMARK    6  A    between atoms: _11  and  _12
REMARK    7  A    between atoms: _11  and  _14
REMARK    8  A    between atoms: _14  and  _15
REMARK    9  A    between atoms: _18  and  _20
REMARK   10  A    between atoms: _20  and  _21
REMARK   11  A    between atoms: _20  and  _23
REMARK   12  A    between atoms: _23  and  _24
REMARK   13  A    between atoms: _24  and  _25
REMARK   14  A    between atoms: _25  and  _26
REMARK   15  A    between atoms: _35  and  _37
REMARK   16  A    between atoms: _37  and  _38
REMARK   17  A    between atoms: _37  and  _40
REMARK   18  A    between atoms: _40  and  _41
REMARK   19  A    between atoms: _46  and  _47
REMARK   20  A    between atoms: _49  and  _51
REMARK   21  A    between atoms: _51  and  _52
REMARK   22  A    between atoms: _51  and  _54
REMARK   23  A    between atoms: _54  and  _55
REMARK   24  A    between atoms: _58  and  _60
REMARK   25  A    between atoms: _60  and  _61
REMARK   26  A    between atoms: _64  and  _66
REMARK   27  A    between atoms: _66  and  _67
REMARK   28  A    between atoms: _66  and  _69
REMARK   29  A    between atoms: _69  and  _70
REMARK   30  A    between atoms: _73  and  _75
REMARK   31  A    between atoms: _75  and  _76
REMARK   32  A    between atoms: _75  and  _78
REMARK   33  A    between atoms: _78  and  _79
REMARK   34  A    between atoms: _82  and  _84
REMARK   35  A    between atoms: _84  and  _85
REMARK   36  A    between atoms: _87  and  _89
REMARK   37  A    between atoms: _89  and  _90
REMARK   38  A    between atoms: _89  and  _92
REMARK   39  A    between atoms: _92  and  _93
REMARK   40  A    between atoms: _98  and  _100
REMARK   41  A    between atoms: _100  and  _101
REMARK   42  A    between atoms: _100  and  _103
REMARK   43  A    between atoms: _103  and  _104
REMARK   44  A    between atoms: _104  and  _105
REMARK   45  A    between atoms: _105  and  _106
REMARK   46  A    between atoms: _115  and  _117
REMARK   47  A    between atoms: _117  and  _118
REMARK   48  A    between atoms: _117  and  _120
REMARK   49  A    between atoms: _120  and  _121
REMARK   50  A    between atoms: _124  and  _126
REMARK   51  A    between atoms: _126  and  _127
REMARK   52  A    between atoms: _130  and  _132
REMARK   53  A    between atoms: _132  and  _133
REMARK   54  A    between atoms: _132  and  _135
REMARK   55  A    between atoms: _135  and  _136
REMARK   56  A    between atoms: _136  and  _137
REMARK   57  A    between atoms: _137  and  _138
REMARK   58  A    between atoms: _147  and  _149
REMARK   59  A    between atoms: _149  and  _150
REMARK   60  A    between atoms: _149  and  _152
REMARK   61  A    between atoms: _152  and  _153
REMARK   62  A    between atoms: _160  and  _161
REMARK   63  A    between atoms: _166  and  _168
REMARK   64  A    between atoms: _168  and  _169
REMARK   65  A    between atoms: _168  and  _171
REMARK   66  A    between atoms: _171  and  _172
REMARK   67  A    between atoms: _175  and  _177
REMARK   68  A    between atoms: _177  and  _178
REMARK   69  A    between atoms: _177  and  _180
REMARK   70  A    between atoms: _180  and  _181
REMARK   71  A    between atoms: _181  and  _182
REMARK   72  A    between atoms: _182  and  _183
REMARK   73  A    between atoms: _192  and  _194
REMARK   74  A    between atoms: _194  and  _195
REMARK   75  A    between atoms: _194  and  _197
REMARK   76  A    between atoms: _200  and  _202
REMARK   77  A    between atoms: _202  and  _203
REMARK   78  A    between atoms: _202  and  _205
REMARK   79  A    between atoms: _205  and  _206
REMARK   80  A    between atoms: _210  and  _211
REMARK   81  A    between atoms: _216  and  _218
REMARK   82  A    between atoms: _218  and  _219
REMARK   83  A    between atoms: _218  and  _221
REMARK   84  A    between atoms: _221  and  _222
REMARK   85  A    between atoms: _227  and  _228
REMARK   86  A    between atoms: _230  and  _232
REMARK   87  A    between atoms: _232  and  _233
REMARK   88  A    between atoms: _232  and  _235
REMARK   89  A    between atoms: _238  and  _240
REMARK   90  A    between atoms: _240  and  _241
REMARK   91  A    between atoms: _240  and  _243
REMARK   92  A    between atoms: _243  and  _244
REMARK   93  A    between atoms: _246  and  _248
REMARK   94  A    between atoms: _248  and  _249
REMARK   95  A    between atoms: _248  and  _251
REMARK   96  A    between atoms: _254  and  _256
REMARK   97  A    between atoms: _256  and  _257
REMARK   98  A    between atoms: _256  and  _259
REMARK   99  A    between atoms: _259  and  _260
REMARK  100  A    between atoms: _265  and  _266
REMARK  101  A    between atoms: _268  and  _270
REMARK  102  A    between atoms: _270  and  _271
REMARK  103  A    between atoms: _270  and  _273
REMARK  104  A    between atoms: _276  and  _278
REMARK  105  A    between atoms: _278  and  _279
REMARK  106  A    between atoms: _278  and  _281
REMARK  107  A    between atoms: _284  and  _286
REMARK  108  A    between atoms: _286  and  _287
REMARK  109  A    between atoms: _286  and  _289
REMARK  110  A    between atoms: _289  and  _290
REMARK  111  A    between atoms: _290  and  _291
REMARK  112  A    between atoms: _294  and  _295
REMARK                            x       y       z     vdW  Elec       q    Type
REMARK                         _______ _______ _______ _____ _____    ______ ____
ROOT
ATOM      1  O   HOH     1      -1.733  -5.067  -9.223  0.00  0.00    +0.000 OA
ENDROOT
TORSDOF 0
REMARK  Name = ../refined-set-2016/4pnu/4pnu_pocket.pdb
REMARK  112 active torsions:
REMARK  status: ('A' for Active; 'I' for Inactive)
REMARK    1  A    between atoms: _1  and  _3
REMARK    2  A    between atoms: _3  and  _4
REMARK    3  A    between atoms: _3  and  _6
REMARK    4  A    between atoms: _6  and  _7
REMARK    5  A    between atoms: _9  and  _11
REMARK    6  A    between atoms: _11  and  _12
REMARK    7  A    between atoms: _11  and  _14
REMARK    8  A    between atoms: _14  and  _15
REMARK    9  A    between atoms: _18  and  _20
REMARK   10  A    between atoms: _20  and  _21
REMARK   11  A    between atoms: _20  and  _23
REMARK   12  A    between atoms: _23  and  _24
REMARK   13  A    between atoms: _24  and  _25
REMARK   14  A    between atoms: _25  and  _26
REMARK   15  A    between atoms: _35  and  _37
REMARK   16  A    between atoms: _37  and  _38
REMARK   17  A    between atoms: _37  and  _40
REMARK   18  A    between atoms: _40  and  _41
REMARK   19  A    between atoms: _46  and  _47
REMARK   20  A    between atoms: _49  and  _51
REMARK   21  A    between atoms: _51  and  _52
REMARK   22  A    between atoms: _51  and  _54
REMARK   23  A    between atoms: _54  and  _55
REMARK   24  A    between atoms: _58  and  _60
REMARK   25  A    between atoms: _60  and  _61
REMARK   26  A    between atoms: _64  and  _66
REMARK   27  A    between atoms: _66  and  _67
REMARK   28  A    between atoms: _66  and  _69
REMARK   29  A    between atoms: _69  and  _70
REMARK   30  A    between atoms: _73  and  _75
REMARK   31  A    between atoms: _75  and  _76
REMARK   32  A    between atoms: _75  and  _78
REMARK   33  A    between atoms: _78  and  _79
REMARK   34  A    between atoms: _82  and  _84
REMARK   35  A    between atoms: _84  and  _85
REMARK   36  A    between atoms: _87  and  _89
REMARK   37  A    between atoms: _89  and  _90
REMARK   38  A    between atoms: _89  and  _92
REMARK   39  A    between atoms: _92  and  _93
REMARK   40  A    between atoms: _98  and  _100
REMARK   41  A    between atoms: _100  and  _101
REMARK   42  A    between atoms: _100  and  _103
REMARK   43  A    between atoms: _103  and  _104
REMARK   44  A    between atoms: _104  and  _105
REMARK   45  A    between atoms: _105  and  _106
REMARK   46  A    between atoms: _115  and  _117
REMARK   47  A    between atoms: _117  and  _118
REMARK   48  A    between atoms: _117  and  _120
REMARK   49  A    between atoms: _120  and  _121
REMARK   50  A    between atoms: _124  and  _126
REMARK   51  A    between atoms: _126  and  _127
REMARK   52  A    between atoms: _130  and  _132
REMARK   53  A    between atoms: _132  and  _133
REMARK   54  A    between atoms: _132  and  _135
REMARK   55  A    between atoms: _135  and  _136
REMARK   56  A    between atoms: _136  and  _137
REMARK   57  A    between atoms: _137  and  _138
REMARK   58  A    between atoms: _147  and  _149
REMARK   59  A    between atoms: _149  and  _150
REMARK   60  A    between atoms: _149  and  _152
REMARK   61  A    between atoms: _152  and  _153
REMARK   62  A    between atoms: _160  and  _161
REMARK   63  A    between atoms: _166  and  _168
REMARK   64  A    between atoms: _168  and  _169
REMARK   65  A    between atoms: _168  and  _171
REMARK   66  A    between atoms: _171  and  _172
REMARK   67  A    between atoms: _175  and  _177
REMARK   68  A    between atoms: _177  and  _178
REMARK   69  A    between atoms: _177  and  _180
REMARK   70  A    between atoms: _180  and  _181
REMARK   71  A    between atoms: _181  and  _182
REMARK   72  A    between atoms: _182  and  _183
REMARK   73  A    between atoms: _192  and  _194
REMARK   74  A    between atoms: _194  and  _195
REMARK   75  A    between atoms: _194  and  _197
REMARK   76  A    between atoms: _200  and  _202
REMARK   77  A    between atoms: _202  and  _203
REMARK   78  A    between atoms: _202  and  _205
REMARK   79  A    between atoms: _205  and  _206
REMARK   80  A    between atoms: _210  and  _211
REMARK   81  A    between atoms: _216  and  _218
REMARK   82  A    between atoms: _218  and  _219
REMARK   83  A    between atoms: _218  and  _221
REMARK   84  A    between atoms: _221  and  _222
REMARK   85  A    between atoms: _227  and  _228
REMARK   86  A    between atoms: _230  and  _232
REMARK   87  A    between atoms: _232  and  _233
REMARK   88  A    between atoms: _232  and  _235
REMARK   89  A    between atoms: _238  and  _240
REMARK   90  A    between atoms: _240  and  _241
REMARK   91  A    between atoms: _240  and  _243
REMARK   92  A    between atoms: _243  and  _244
REMARK   93  A    between atoms: _246  and  _248
REMARK   94  A    between atoms: _248  and  _249
REMARK   95  A    between atoms: _248  and  _251
REMARK   96  A    between atoms: _254  and  _256
REMARK   97  A    between atoms: _256  and  _257
REMARK   98  A    between atoms: _256  and  _259
REMARK   99  A    between atoms: _259  and  _260
REMARK  100  A    between atoms: _265  and  _266
REMARK  101  A    between atoms: _268  and  _270
REMARK  102  A    between atoms: _270  and  _271
REMARK  103  A    between atoms: _270  and  _273
REMARK  104  A    between atoms: _276  and  _278
REMARK  105  A    between atoms: _278  and  _279
REMARK  106  A    between atoms: _278  and  _281
REMARK  107  A    between atoms: _284  and  _286
REMARK  108  A    between atoms: _286  and  _287
REMARK  109  A    between atoms: _286  and  _289
REMARK  110  A    between atoms: _289  and  _290
REMARK  111  A    between atoms: _290  and  _291
REMARK  112  A    between atoms: _294  and  _295
REMARK                            x       y       z     vdW  Elec       q    Type
REMARK                         _______ _______ _______ _____ _____    ______ ____
ROOT
ATOM      1  O   HOH     1       5.738 -12.198  -4.322  0.00  0.00    +0.000 OA
ENDROOT
TORSDOF 0
REMARK  Name = ../refined-set-2016/4pnu/4pnu_pocket.pdb
REMARK  112 active torsions:
REMARK  status: ('A' for Active; 'I' for Inactive)
REMARK    1  A    between atoms: _1  and  _3
REMARK    2  A    between atoms: _3  and  _4
REMARK    3  A    between atoms: _3  and  _6
REMARK    4  A    between atoms: _6  and  _7
REMARK    5  A    between atoms: _9  and  _11
REMARK    6  A    between atoms: _11  and  _12
REMARK    7  A    between atoms: _11  and  _14
REMARK    8  A    between atoms: _14  and  _15
REMARK    9  A    between atoms: _18  and  _20
REMARK   10  A    between atoms: _20  and  _21
REMARK   11  A    between atoms: _20  and  _23
REMARK   12  A    between atoms: _23  and  _24
REMARK   13  A    between atoms: _24  and  _25
REMARK   14  A    between atoms: _25  and  _26
REMARK   15  A    between atoms: _35  and  _37
REMARK   16  A    between atoms: _37  and  _38
REMARK   17  A    between atoms: _37  and  _40
REMARK   18  A    between atoms: _40  and  _41
REMARK   19  A    between atoms: _46  and  _47
REMARK   20  A    between atoms: _49  and  _51
REMARK   21  A    between atoms: _51  and  _52
REMARK   22  A    between atoms: _51  and  _54
REMARK   23  A    between atoms: _54  and  _55
REMARK   24  A    between atoms: _58  and  _60
REMARK   25  A    between atoms: _60  and  _61
REMARK   26  A    between atoms: _64  and  _66
REMARK   27  A    between atoms: _66  and  _67
REMARK   28  A    between atoms: _66  and  _69
REMARK   29  A    between atoms: _69  and  _70
REMARK   30  A    between atoms: _73  and  _75
REMARK   31  A    between atoms: _75  and  _76
REMARK   32  A    between atoms: _75  and  _78
REMARK   33  A    between atoms: _78  and  _79
REMARK   34  A    between atoms: _82  and  _84
REMARK   35  A    between atoms: _84  and  _85
REMARK   36  A    between atoms: _87  and  _89
REMARK   37  A    between atoms: _89  and  _90
REMARK   38  A    between atoms: _89  and  _92
REMARK   39  A    between atoms: _92  and  _93
REMARK   40  A    between atoms: _98  and  _100
REMARK   41  A    between atoms: _100  and  _101
REMARK   42  A    between atoms: _100  and  _103
REMARK   43  A    between atoms: _103  and  _104
REMARK   44  A    between atoms: _104  and  _105
REMARK   45  A    between atoms: _105  and  _106
REMARK   46  A    between atoms: _115  and  _117
REMARK   47  A    between atoms: _117  and  _118
REMARK   48  A    between atoms: _117  and  _120
REMARK   49  A    between atoms: _120  and  _121
REMARK   50  A    between atoms: _124  and  _126
REMARK   51  A    between atoms: _126  and  _127
REMARK   52  A    between atoms: _130  and  _132
REMARK   53  A    between atoms: _132  and  _133
REMARK   54  A    between atoms: _132  and  _135
REMARK   55  A    between atoms: _135  and  _136
REMARK   56  A    between atoms: _136  and  _137
REMARK   57  A    between atoms: _137  and  _138
REMARK   58  A    between atoms: _147  and  _149
REMARK   59  A    between atoms: _149  and  _150
REMARK   60  A    between atoms: _149  and  _152
REMARK   61  A    between atoms: _152  and  _153
REMARK   62  A    between atoms: _160  and  _161
REMARK   63  A    between atoms: _166  and  _168
REMARK   64  A    between atoms: _168  and  _169
REMARK   65  A    between atoms: _168  and  _171
REMARK   66  A    between atoms: _171  and  _172
REMARK   67  A    between atoms: _175  and  _177
REMARK   68  A    between atoms: _177  and  _178
REMARK   69  A    between atoms: _177  and  _180
REMARK   70  A    between atoms: _180  and  _181
REMARK   71  A    between atoms: _181  and  _182
REMARK   72  A    between atoms: _182  and  _183
REMARK   73  A    between atoms: _192  and  _194
REMARK   74  A    between atoms: _194  and  _195
REMARK   75  A    between atoms: _194  and  _197
REMARK   76  A    between atoms: _200  and  _202
REMARK   77  A    between atoms: _202  and  _203
REMARK   78  A    between atoms: _202  and  _205
REMARK   79  A    between atoms: _205  and  _206
REMARK   80  A    between atoms: _210  and  _211
REMARK   81  A    between atoms: _216  and  _218
REMARK   82  A    between atoms: _218  and  _219
REMARK   83  A    between atoms: _218  and  _221
REMARK   84  A    between atoms: _221  and  _222
REMARK   85  A    between atoms: _227  and  _228
REMARK   86  A    between atoms: _230  and  _232
REMARK   87  A    between atoms: _232  and  _233
REMARK   88  A    between atoms: _232  and  _235
REMARK   89  A    between atoms: _238  and  _240
REMARK   90  A    between atoms: _240  and  _241
REMARK   91  A    between atoms: _240  and  _243
REMARK   92  A    between atoms: _243  and  _244
REMARK   93  A    between atoms: _246  and  _248
REMARK   94  A    between atoms: _248  and  _249
REMARK   95  A    between atoms: _248  and  _251
REMARK   96  A    between atoms: _254  and  _256
REMARK   97  A    between atoms: _256  and  _257
REMARK   98  A    between atoms: _256  and  _259
REMARK   99  A    between atoms: _259  and  _260
REMARK  100  A    between atoms: _265  and  _266
REMARK  101  A    between atoms: _268  and  _270
REMARK  102  A    between atoms: _270  and  _271
REMARK  103  A    between atoms: _270  and  _273
REMARK  104  A    between atoms: _276  and  _278
REMARK  105  A    between atoms: _278  and  _279
REMARK  106  A    between atoms: _278  and  _281
REMARK  107  A    between atoms: _284  and  _286
REMARK  108  A    between atoms: _286  and  _287
REMARK  109  A    between atoms: _286  and  _289
REMARK  110  A    between atoms: _289  and  _290
REMARK  111  A    between atoms: _290  and  _291
REMARK  112  A    between atoms: _294  and  _295
REMARK                            x       y       z     vdW  Elec       q    Type
REMARK                         _______ _______ _______ _____ _____    ______ ____
ROOT
ATOM      1  O   HOH     1      16.201  -3.898 -12.900  0.00  0.00    +0.000 OA
ENDROOT
TORSDOF 0
REMARK  Name = ../refined-set-2016/4pnu/4pnu_pocket.pdb
REMARK  112 active torsions:
REMARK  status: ('A' for Active; 'I' for Inactive)
REMARK    1  A    between atoms: _1  and  _3
REMARK    2  A    between atoms: _3  and  _4
REMARK    3  A    between atoms: _3  and  _6
REMARK    4  A    between atoms: _6  and  _7
REMARK    5  A    between atoms: _9  and  _11
REMARK    6  A    between atoms: _11  and  _12
REMARK    7  A    between atoms: _11  and  _14
REMARK    8  A    between atoms: _14  and  _15
REMARK    9  A    between atoms: _18  and  _20
REMARK   10  A    between atoms: _20  and  _21
REMARK   11  A    between atoms: _20  and  _23
REMARK   12  A    between atoms: _23  and  _24
REMARK   13  A    between atoms: _24  and  _25
REMARK   14  A    between atoms: _25  and  _26
REMARK   15  A    between atoms: _35  and  _37
REMARK   16  A    between atoms: _37  and  _38
REMARK   17  A    between atoms: _37  and  _40
REMARK   18  A    between atoms: _40  and  _41
REMARK   19  A    between atoms: _46  and  _47
REMARK   20  A    between atoms: _49  and  _51
REMARK   21  A    between atoms: _51  and  _52
REMARK   22  A    between atoms: _51  and  _54
REMARK   23  A    between atoms: _54  and  _55
REMARK   24  A    between atoms: _58  and  _60
REMARK   25  A    between atoms: _60  and  _61
REMARK   26  A    between atoms: _64  and  _66
REMARK   27  A    between atoms: _66  and  _67
REMARK   28  A    between atoms: _66  and  _69
REMARK   29  A    between atoms: _69  and  _70
REMARK   30  A    between atoms: _73  and  _75
REMARK   31  A    between atoms: _75  and  _76
REMARK   32  A    between atoms: _75  and  _78
REMARK   33  A    between atoms: _78  and  _79
REMARK   34  A    between atoms: _82  and  _84
REMARK   35  A    between atoms: _84  and  _85
REMARK   36  A    between atoms: _87  and  _89
REMARK   37  A    between atoms: _89  and  _90
REMARK   38  A    between atoms: _89  and  _92
REMARK   39  A    between atoms: _92  and  _93
REMARK   40  A    between atoms: _98  and  _100
REMARK   41  A    between atoms: _100  and  _101
REMARK   42  A    between atoms: _100  and  _103
REMARK   43  A    between atoms: _103  and  _104
REMARK   44  A    between atoms: _104  and  _105
REMARK   45  A    between atoms: _105  and  _106
REMARK   46  A    between atoms: _115  and  _117
REMARK   47  A    between atoms: _117  and  _118
REMARK   48  A    between atoms: _117  and  _120
REMARK   49  A    between atoms: _120  and  _121
REMARK   50  A    between atoms: _124  and  _126
REMARK   51  A    between atoms: _126  and  _127
REMARK   52  A    between atoms: _130  and  _132
REMARK   53  A    between atoms: _132  and  _133
REMARK   54  A    between atoms: _132  and  _135
REMARK   55  A    between atoms: _135  and  _136
REMARK   56  A    between atoms: _136  and  _137
REMARK   57  A    between atoms: _137  and  _138
REMARK   58  A    between atoms: _147  and  _149
REMARK   59  A    between atoms: _149  and  _150
REMARK   60  A    between atoms: _149  and  _152
REMARK   61  A    between atoms: _152  and  _153
REMARK   62  A    between atoms: _160  and  _161
REMARK   63  A    between atoms: _166  and  _168
REMARK   64  A    between atoms: _168  and  _169
REMARK   65  A    between atoms: _168  and  _171
REMARK   66  A    between atoms: _171  and  _172
REMARK   67  A    between atoms: _175  and  _177
REMARK   68  A    between atoms: _177  and  _178
REMARK   69  A    between atoms: _177  and  _180
REMARK   70  A    between atoms: _180  and  _181
REMARK   71  A    between atoms: _181  and  _182
REMARK   72  A    between atoms: _182  and  _183
REMARK   73  A    between atoms: _192  and  _194
REMARK   74  A    between atoms: _194  and  _195
REMARK   75  A    between atoms: _194  and  _197
REMARK   76  A    between atoms: _200  and  _202
REMARK   77  A    between atoms: _202  and  _203
REMARK   78  A    between atoms: _202  and  _205
REMARK   79  A    between atoms: _205  and  _206
REMARK   80  A    between atoms: _210  and  _211
REMARK   81  A    between atoms: _216  and  _218
REMARK   82  A    between atoms: _218  and  _219
REMARK   83  A    between atoms: _218  and  _221
REMARK   84  A    between atoms: _221  and  _222
REMARK   85  A    between atoms: _227  and  _228
REMARK   86  A    between atoms: _230  and  _232
REMARK   87  A    between atoms: _232  and  _233
REMARK   88  A    between atoms: _232  and  _235
REMARK   89  A    between atoms: _238  and  _240
REMARK   90  A    between atoms: _240  and  _241
REMARK   91  A    between atoms: _240  and  _243
REMARK   92  A    between atoms: _243  and  _244
REMARK   93  A    between atoms: _246  and  _248
REMARK   94  A    between atoms: _248  and  _249
REMARK   95  A    between atoms: _248  and  _251
REMARK   96  A    between atoms: _254  and  _256
REMARK   97  A    between atoms: _256  and  _257
REMARK   98  A    between atoms: _256  and  _259
REMARK   99  A    between atoms: _259  and  _260
REMARK  100  A    between atoms: _265  and  _266
REMARK  101  A    between atoms: _268  and  _270
REMARK  102  A    between atoms: _270  and  _271
REMARK  103  A    between atoms: _270  and  _273
REMARK  104  A    between atoms: _276  and  _278
REMARK  105  A    between atoms: _278  and  _279
REMARK  106  A    between atoms: _278  and  _281
REMARK  107  A    between atoms: _284  and  _286
REMARK  108  A    between atoms: _286  and  _287
REMARK  109  A    between atoms: _286  and  _289
REMARK  110  A    between atoms: _289  and  _290
REMARK  111  A    between atoms: _290  and  _291
REMARK  112  A    between atoms: _294  and  _295
REMARK                            x       y       z     vdW  Elec       q    Type
REMARK                         _______ _______ _______ _____ _____    ______ ____
ROOT
ATOM      1  O   HOH     1       8.310 -13.924  -5.294  0.00  0.00    +0.000 OA
ENDROOT
TORSDOF 0
REMARK  Name = ../refined-set-2016/4pnu/4pnu_pocket.pdb
REMARK  112 active torsions:
REMARK  status: ('A' for Active; 'I' for Inactive)
REMARK    1  A    between atoms: _1  and  _3
REMARK    2  A    between atoms: _3  and  _4
REMARK    3  A    between atoms: _3  and  _6
REMARK    4  A    between atoms: _6  and  _7
REMARK    5  A    between atoms: _9  and  _11
REMARK    6  A    between atoms: _11  and  _12
REMARK    7  A    between atoms: _11  and  _14
REMARK    8  A    between atoms: _14  and  _15
REMARK    9  A    between atoms: _18  and  _20
REMARK   10  A    between atoms: _20  and  _21
REMARK   11  A    between atoms: _20  and  _23
REMARK   12  A    between atoms: _23  and  _24
REMARK   13  A    between atoms: _24  and  _25
REMARK   14  A    between atoms: _25  and  _26
REMARK   15  A    between atoms: _35  and  _37
REMARK   16  A    between atoms: _37  and  _38
REMARK   17  A    between atoms: _37  and  _40
REMARK   18  A    between atoms: _40  and  _41
REMARK   19  A    between atoms: _46  and  _47
REMARK   20  A    between atoms: _49  and  _51
REMARK   21  A    between atoms: _51  and  _52
REMARK   22  A    between atoms: _51  and  _54
REMARK   23  A    between atoms: _54  and  _55
REMARK   24  A    between atoms: _58  and  _60
REMARK   25  A    between atoms: _60  and  _61
REMARK   26  A    between atoms: _64  and  _66
REMARK   27  A    between atoms: _66  and  _67
REMARK   28  A    between atoms: _66  and  _69
REMARK   29  A    between atoms: _69  and  _70
REMARK   30  A    between atoms: _73  and  _75
REMARK   31  A    between atoms: _75  and  _76
REMARK   32  A    between atoms: _75  and  _78
REMARK   33  A    between atoms: _78  and  _79
REMARK   34  A    between atoms: _82  and  _84
REMARK   35  A    between atoms: _84  and  _85
REMARK   36  A    between atoms: _87  and  _89
REMARK   37  A    between atoms: _89  and  _90
REMARK   38  A    between atoms: _89  and  _92
REMARK   39  A    between atoms: _92  and  _93
REMARK   40  A    between atoms: _98  and  _100
REMARK   41  A    between atoms: _100  and  _101
REMARK   42  A    between atoms: _100  and  _103
REMARK   43  A    between atoms: _103  and  _104
REMARK   44  A    between atoms: _104  and  _105
REMARK   45  A    between atoms: _105  and  _106
REMARK   46  A    between atoms: _115  and  _117
REMARK   47  A    between atoms: _117  and  _118
REMARK   48  A    between atoms: _117  and  _120
REMARK   49  A    between atoms: _120  and  _121
REMARK   50  A    between atoms: _124  and  _126
REMARK   51  A    between atoms: _126  and  _127
REMARK   52  A    between atoms: _130  and  _132
REMARK   53  A    between atoms: _132  and  _133
REMARK   54  A    between atoms: _132  and  _135
REMARK   55  A    between atoms: _135  and  _136
REMARK   56  A    between atoms: _136  and  _137
REMARK   57  A    between atoms: _137  and  _138
REMARK   58  A    between atoms: _147  and  _149
REMARK   59  A    between atoms: _149  and  _150
REMARK   60  A    between atoms: _149  and  _152
REMARK   61  A    between atoms: _152  and  _153
REMARK   62  A    between atoms: _160  and  _161
REMARK   63  A    between atoms: _166  and  _168
REMARK   64  A    between atoms: _168  and  _169
REMARK   65  A    between atoms: _168  and  _171
REMARK   66  A    between atoms: _171  and  _172
REMARK   67  A    between atoms: _175  and  _177
REMARK   68  A    between atoms: _177  and  _178
REMARK   69  A    between atoms: _177  and  _180
REMARK   70  A    between atoms: _180  and  _181
REMARK   71  A    between atoms: _181  and  _182
REMARK   72  A    between atoms: _182  and  _183
REMARK   73  A    between atoms: _192  and  _194
REMARK   74  A    between atoms: _194  and  _195
REMARK   75  A    between atoms: _194  and  _197
REMARK   76  A    between atoms: _200  and  _202
REMARK   77  A    between atoms: _202  and  _203
REMARK   78  A    between atoms: _202  and  _205
REMARK   79  A    between atoms: _205  and  _206
REMARK   80  A    between atoms: _210  and  _211
REMARK   81  A    between atoms: _216  and  _218
REMARK   82  A    between atoms: _218  and  _219
REMARK   83  A    between atoms: _218  and  _221
REMARK   84  A    between atoms: _221  and  _222
REMARK   85  A    between atoms: _227  and  _228
REMARK   86  A    between atoms: _230  and  _232
REMARK   87  A    between atoms: _232  and  _233
REMARK   88  A    between atoms: _232  and  _235
REMARK   89  A    between atoms: _238  and  _240
REMARK   90  A    between atoms: _240  and  _241
REMARK   91  A    between atoms: _240  and  _243
REMARK   92  A    between atoms: _243  and  _244
REMARK   93  A    between atoms: _246  and  _248
REMARK   94  A    between atoms: _248  and  _249
REMARK   95  A    between atoms: _248  and  _251
REMARK   96  A    between atoms: _254  and  _256
REMARK   97  A    between atoms: _256  and  _257
REMARK   98  A    between atoms: _256  and  _259
REMARK   99  A    between atoms: _259  and  _260
REMARK  100  A    between atoms: _265  and  _266
REMARK  101  A    between atoms: _268  and  _270
REMARK  102  A    between atoms: _270  and  _271
REMARK  103  A    between atoms: _270  and  _273
REMARK  104  A    between atoms: _276  and  _278
REMARK  105  A    between atoms: _278  and  _279
REMARK  106  A    between atoms: _278  and  _281
REMARK  107  A    between atoms: _284  and  _286
REMARK  108  A    between atoms: _286  and  _287
REMARK  109  A    between atoms: _286  and  _289
REMARK  110  A    between atoms: _289  and  _290
REMARK  111  A    between atoms: _290  and  _291
REMARK  112  A    between atoms: _294  and  _295
REMARK                            x       y       z     vdW  Elec       q    Type
REMARK                         _______ _______ _______ _____ _____    ______ ____
ROOT
ATOM      1  O   HOH     1       5.968   1.325 -17.532  0.00  0.00    +0.000 OA
ENDROOT
TORSDOF 0
REMARK  Name = ../refined-set-2016/4pnu/4pnu_pocket.pdb
REMARK  112 active torsions:
REMARK  status: ('A' for Active; 'I' for Inactive)
REMARK    1  A    between atoms: _1  and  _3
REMARK    2  A    between atoms: _3  and  _4
REMARK    3  A    between atoms: _3  and  _6
REMARK    4  A    between atoms: _6  and  _7
REMARK    5  A    between atoms: _9  and  _11
REMARK    6  A    between atoms: _11  and  _12
REMARK    7  A    between atoms: _11  and  _14
REMARK    8  A    between atoms: _14  and  _15
REMARK    9  A    between atoms: _18  and  _20
REMARK   10  A    between atoms: _20  and  _21
REMARK   11  A    between atoms: _20  and  _23
REMARK   12  A    between atoms: _23  and  _24
REMARK   13  A    between atoms: _24  and  _25
REMARK   14  A    between atoms: _25  and  _26
REMARK   15  A    between atoms: _35  and  _37
REMARK   16  A    between atoms: _37  and  _38
REMARK   17  A    between atoms: _37  and  _40
REMARK   18  A    between atoms: _40  and  _41
REMARK   19  A    between atoms: _46  and  _47
REMARK   20  A    between atoms: _49  and  _51
REMARK   21  A    between atoms: _51  and  _52
REMARK   22  A    between atoms: _51  and  _54
REMARK   23  A    between atoms: _54  and  _55
REMARK   24  A    between atoms: _58  and  _60
REMARK   25  A    between atoms: _60  and  _61
REMARK   26  A    between atoms: _64  and  _66
REMARK   27  A    between atoms: _66  and  _67
REMARK   28  A    between atoms: _66  and  _69
REMARK   29  A    between atoms: _69  and  _70
REMARK   30  A    between atoms: _73  and  _75
REMARK   31  A    between atoms: _75  and  _76
REMARK   32  A    between atoms: _75  and  _78
REMARK   33  A    between atoms: _78  and  _79
REMARK   34  A    between atoms: _82  and  _84
REMARK   35  A    between atoms: _84  and  _85
REMARK   36  A    between atoms: _87  and  _89
REMARK   37  A    between atoms: _89  and  _90
REMARK   38  A    between atoms: _89  and  _92
REMARK   39  A    between atoms: _92  and  _93
REMARK   40  A    between atoms: _98  and  _100
REMARK   41  A    between atoms: _100  and  _101
REMARK   42  A    between atoms: _100  and  _103
REMARK   43  A    between atoms: _103  and  _104
REMARK   44  A    between atoms: _104  and  _105
REMARK   45  A    between atoms: _105  and  _106
REMARK   46  A    between atoms: _115  and  _117
REMARK   47  A    between atoms: _117  and  _118
REMARK   48  A    between atoms: _117  and  _120
REMARK   49  A    between atoms: _120  and  _121
REMARK   50  A    between atoms: _124  and  _126
REMARK   51  A    between atoms: _126  and  _127
REMARK   52  A    between atoms: _130  and  _132
REMARK   53  A    between atoms: _132  and  _133
REMARK   54  A    between atoms: _132  and  _135
REMARK   55  A    between atoms: _135  and  _136
REMARK   56  A    between atoms: _136  and  _137
REMARK   57  A    between atoms: _137  and  _138
REMARK   58  A    between atoms: _147  and  _149
REMARK   59  A    between atoms: _149  and  _150
REMARK   60  A    between atoms: _149  and  _152
REMARK   61  A    between atoms: _152  and  _153
REMARK   62  A    between atoms: _160  and  _161
REMARK   63  A    between atoms: _166  and  _168
REMARK   64  A    between atoms: _168  and  _169
REMARK   65  A    between atoms: _168  and  _171
REMARK   66  A    between atoms: _171  and  _172
REMARK   67  A    between atoms: _175  and  _177
REMARK   68  A    between atoms: _177  and  _178
REMARK   69  A    between atoms: _177  and  _180
REMARK   70  A    between atoms: _180  and  _181
REMARK   71  A    between atoms: _181  and  _182
REMARK   72  A    between atoms: _182  and  _183
REMARK   73  A    between atoms: _192  and  _194
REMARK   74  A    between atoms: _194  and  _195
REMARK   75  A    between atoms: _194  and  _197
REMARK   76  A    between atoms: _200  and  _202
REMARK   77  A    between atoms: _202  and  _203
REMARK   78  A    between atoms: _202  and  _205
REMARK   79  A    between atoms: _205  and  _206
REMARK   80  A    between atoms: _210  and  _211
REMARK   81  A    between atoms: _216  and  _218
REMARK   82  A    between atoms: _218  and  _219
REMARK   83  A    between atoms: _218  and  _221
REMARK   84  A    between atoms: _221  and  _222
REMARK   85  A    between atoms: _227  and  _228
REMARK   86  A    between atoms: _230  and  _232
REMARK   87  A    between atoms: _232  and  _233
REMARK   88  A    between atoms: _232  and  _235
REMARK   89  A    between atoms: _238  and  _240
REMARK   90  A    between atoms: _240  and  _241
REMARK   91  A    between atoms: _240  and  _243
REMARK   92  A    between atoms: _243  and  _244
REMARK   93  A    between atoms: _246  and  _248
REMARK   94  A    between atoms: _248  and  _249
REMARK   95  A    between atoms: _248  and  _251
REMARK   96  A    between atoms: _254  and  _256
REMARK   97  A    between atoms: _256  and  _257
REMARK   98  A    between atoms: _256  and  _259
REMARK   99  A    between atoms: _259  and  _260
REMARK  100  A    between atoms: _265  and  _266
REMARK  101  A    between atoms: _268  and  _270
REMARK  102  A    between atoms: _270  and  _271
REMARK  103  A    between atoms: _270  and  _273
REMARK  104  A    between atoms: _276  and  _278
REMARK  105  A    between atoms: _278  and  _279
REMARK  106  A    between atoms: _278  and  _281
REMARK  107  A    between atoms: _284  and  _286
REMARK  108  A    between atoms: _286  and  _287
REMARK  109  A    between atoms: _286  and  _289
REMARK  110  A    between atoms: _289  and  _290
REMARK  111  A    between atoms: _290  and  _291
REMARK  112  A    between atoms: _294  and  _295
REMARK                            x       y       z     vdW  Elec       q    Type
REMARK                         _______ _______ _______ _____ _____    ______ ____
ROOT
ATOM      1  O   HOH     1      -2.191  -5.023 -17.828  0.00  0.00    +0.000 OA
ENDROOT
TORSDOF 0
REMARK  Name = ../refined-set-2016/4pnu/4pnu_pocket.pdb
REMARK  112 active torsions:
REMARK  status: ('A' for Active; 'I' for Inactive)
REMARK    1  A    between atoms: _1  and  _3
REMARK    2  A    between atoms: _3  and  _4
REMARK    3  A    between atoms: _3  and  _6
REMARK    4  A    between atoms: _6  and  _7
REMARK    5  A    between atoms: _9  and  _11
REMARK    6  A    between atoms: _11  and  _12
REMARK    7  A    between atoms: _11  and  _14
REMARK    8  A    between atoms: _14  and  _15
REMARK    9  A    between atoms: _18  and  _20
REMARK   10  A    between atoms: _20  and  _21
REMARK   11  A    between atoms: _20  and  _23
REMARK   12  A    between atoms: _23  and  _24
REMARK   13  A    between atoms: _24  and  _25
REMARK   14  A    between atoms: _25  and  _26
REMARK   15  A    between atoms: _35  and  _37
REMARK   16  A    between atoms: _37  and  _38
REMARK   17  A    between atoms: _37  and  _40
REMARK   18  A    between atoms: _40  and  _41
REMARK   19  A    between atoms: _46  and  _47
REMARK   20  A    between atoms: _49  and  _51
REMARK   21  A    between atoms: _51  and  _52
REMARK   22  A    between atoms: _51  and  _54
REMARK   23  A    between atoms: _54  and  _55
REMARK   24  A    between atoms: _58  and  _60
REMARK   25  A    between atoms: _60  and  _61
REMARK   26  A    between atoms: _64  and  _66
REMARK   27  A    between atoms: _66  and  _67
REMARK   28  A    between atoms: _66  and  _69
REMARK   29  A    between atoms: _69  and  _70
REMARK   30  A    between atoms: _73  and  _75
REMARK   31  A    between atoms: _75  and  _76
REMARK   32  A    between atoms: _75  and  _78
REMARK   33  A    between atoms: _78  and  _79
REMARK   34  A    between atoms: _82  and  _84
REMARK   35  A    between atoms: _84  and  _85
REMARK   36  A    between atoms: _87  and  _89
REMARK   37  A    between atoms: _89  and  _90
REMARK   38  A    between atoms: _89  and  _92
REMARK   39  A    between atoms: _92  and  _93
REMARK   40  A    between atoms: _98  and  _100
REMARK   41  A    between atoms: _100  and  _101
REMARK   42  A    between atoms: _100  and  _103
REMARK   43  A    between atoms: _103  and  _104
REMARK   44  A    between atoms: _104  and  _105
REMARK   45  A    between atoms: _105  and  _106
REMARK   46  A    between atoms: _115  and  _117
REMARK   47  A    between atoms: _117  and  _118
REMARK   48  A    between atoms: _117  and  _120
REMARK   49  A    between atoms: _120  and  _121
REMARK   50  A    between atoms: _124  and  _126
REMARK   51  A    between atoms: _126  and  _127
REMARK   52  A    between atoms: _130  and  _132
REMARK   53  A    between atoms: _132  and  _133
REMARK   54  A    between atoms: _132  and  _135
REMARK   55  A    between atoms: _135  and  _136
REMARK   56  A    between atoms: _136  and  _137
REMARK   57  A    between atoms: _137  and  _138
REMARK   58  A    between atoms: _147  and  _149
REMARK   59  A    between atoms: _149  and  _150
REMARK   60  A    between atoms: _149  and  _152
REMARK   61  A    between atoms: _152  and  _153
REMARK   62  A    between atoms: _160  and  _161
REMARK   63  A    between atoms: _166  and  _168
REMARK   64  A    between atoms: _168  and  _169
REMARK   65  A    between atoms: _168  and  _171
REMARK   66  A    between atoms: _171  and  _172
REMARK   67  A    between atoms: _175  and  _177
REMARK   68  A    between atoms: _177  and  _178
REMARK   69  A    between atoms: _177  and  _180
REMARK   70  A    between atoms: _180  and  _181
REMARK   71  A    between atoms: _181  and  _182
REMARK   72  A    between atoms: _182  and  _183
REMARK   73  A    between atoms: _192  and  _194
REMARK   74  A    between atoms: _194  and  _195
REMARK   75  A    between atoms: _194  and  _197
REMARK   76  A    between atoms: _200  and  _202
REMARK   77  A    between atoms: _202  and  _203
REMARK   78  A    between atoms: _202  and  _205
REMARK   79  A    between atoms: _205  and  _206
REMARK   80  A    between atoms: _210  and  _211
REMARK   81  A    between atoms: _216  and  _218
REMARK   82  A    between atoms: _218  and  _219
REMARK   83  A    between atoms: _218  and  _221
REMARK   84  A    between atoms: _221  and  _222
REMARK   85  A    between atoms: _227  and  _228
REMARK   86  A    between atoms: _230  and  _232
REMARK   87  A    between atoms: _232  and  _233
REMARK   88  A    between atoms: _232  and  _235
REMARK   89  A    between atoms: _238  and  _240
REMARK   90  A    between atoms: _240  and  _241
REMARK   91  A    between atoms: _240  and  _243
REMARK   92  A    between atoms: _243  and  _244
REMARK   93  A    between atoms: _246  and  _248
REMARK   94  A    between atoms: _248  and  _249
REMARK   95  A    between atoms: _248  and  _251
REMARK   96  A    between atoms: _254  and  _256
REMARK   97  A    between atoms: _256  and  _257
REMARK   98  A    between atoms: _256  and  _259
REMARK   99  A    between atoms: _259  and  _260
REMARK  100  A    between atoms: _265  and  _266
REMARK  101  A    between atoms: _268  and  _270
REMARK  102  A    between atoms: _270  and  _271
REMARK  103  A    between atoms: _270  and  _273
REMARK  104  A    between atoms: _276  and  _278
REMARK  105  A    between atoms: _278  and  _279
REMARK  106  A    between atoms: _278  and  _281
REMARK  107  A    between atoms: _284  and  _286
REMARK  108  A    between atoms: _286  and  _287
REMARK  109  A    between atoms: _286  and  _289
REMARK  110  A    between atoms: _289  and  _290
REMARK  111  A    between atoms: _290  and  _291
REMARK  112  A    between atoms: _294  and  _295
REMARK                            x       y       z     vdW  Elec       q    Type
REMARK                         _______ _______ _______ _____ _____    ______ ____
ROOT
ATOM      1  O   HOH     1      10.048 -15.018  -7.161  0.00  0.00    +0.000 OA
ENDROOT
TORSDOF 0
REMARK  Name = ../refined-set-2016/4pnu/4pnu_pocket.pdb
REMARK  112 active torsions:
REMARK  status: ('A' for Active; 'I' for Inactive)
REMARK    1  A    between atoms: _1  and  _3
REMARK    2  A    between atoms: _3  and  _4
REMARK    3  A    between atoms: _3  and  _6
REMARK    4  A    between atoms: _6  and  _7
REMARK    5  A    between atoms: _9  and  _11
REMARK    6  A    between atoms: _11  and  _12
REMARK    7  A    between atoms: _11  and  _14
REMARK    8  A    between atoms: _14  and  _15
REMARK    9  A    between atoms: _18  and  _20
REMARK   10  A    between atoms: _20  and  _21
REMARK   11  A    between atoms: _20  and  _23
REMARK   12  A    between atoms: _23  and  _24
REMARK   13  A    between atoms: _24  and  _25
REMARK   14  A    between atoms: _25  and  _26
REMARK   15  A    between atoms: _35  and  _37
REMARK   16  A    between atoms: _37  and  _38
REMARK   17  A    between atoms: _37  and  _40
REMARK   18  A    between atoms: _40  and  _41
REMARK   19  A    between atoms: _46  and  _47
REMARK   20  A    between atoms: _49  and  _51
REMARK   21  A    between atoms: _51  and  _52
REMARK   22  A    between atoms: _51  and  _54
REMARK   23  A    between atoms: _54  and  _55
REMARK   24  A    between atoms: _58  and  _60
REMARK   25  A    between atoms: _60  and  _61
REMARK   26  A    between atoms: _64  and  _66
REMARK   27  A    between atoms: _66  and  _67
REMARK   28  A    between atoms: _66  and  _69
REMARK   29  A    between atoms: _69  and  _70
REMARK   30  A    between atoms: _73  and  _75
REMARK   31  A    between atoms: _75  and  _76
REMARK   32  A    between atoms: _75  and  _78
REMARK   33  A    between atoms: _78  and  _79
REMARK   34  A    between atoms: _82  and  _84
REMARK   35  A    between atoms: _84  and  _85
REMARK   36  A    between atoms: _87  and  _89
REMARK   37  A    between atoms: _89  and  _90
REMARK   38  A    between atoms: _89  and  _92
REMARK   39  A    between atoms: _92  and  _93
REMARK   40  A    between atoms: _98  and  _100
REMARK   41  A    between atoms: _100  and  _101
REMARK   42  A    between atoms: _100  and  _103
REMARK   43  A    between atoms: _103  and  _104
REMARK   44  A    between atoms: _104  and  _105
REMARK   45  A    between atoms: _105  and  _106
REMARK   46  A    between atoms: _115  and  _117
REMARK   47  A    between atoms: _117  and  _118
REMARK   48  A    between atoms: _117  and  _120
REMARK   49  A    between atoms: _120  and  _121
REMARK   50  A    between atoms: _124  and  _126
REMARK   51  A    between atoms: _126  and  _127
REMARK   52  A    between atoms: _130  and  _132
REMARK   53  A    between atoms: _132  and  _133
REMARK   54  A    between atoms: _132  and  _135
REMARK   55  A    between atoms: _135  and  _136
REMARK   56  A    between atoms: _136  and  _137
REMARK   57  A    between atoms: _137  and  _138
REMARK   58  A    between atoms: _147  and  _149
REMARK   59  A    between atoms: _149  and  _150
REMARK   60  A    between atoms: _149  and  _152
REMARK   61  A    between atoms: _152  and  _153
REMARK   62  A    between atoms: _160  and  _161
REMARK   63  A    between atoms: _166  and  _168
REMARK   64  A    between atoms: _168  and  _169
REMARK   65  A    between atoms: _168  and  _171
REMARK   66  A    between atoms: _171  and  _172
REMARK   67  A    between atoms: _175  and  _177
REMARK   68  A    between atoms: _177  and  _178
REMARK   69  A    between atoms: _177  and  _180
REMARK   70  A    between atoms: _180  and  _181
REMARK   71  A    between atoms: _181  and  _182
REMARK   72  A    between atoms: _182  and  _183
REMARK   73  A    between atoms: _192  and  _194
REMARK   74  A    between atoms: _194  and  _195
REMARK   75  A    between atoms: _194  and  _197
REMARK   76  A    between atoms: _200  and  _202
REMARK   77  A    between atoms: _202  and  _203
REMARK   78  A    between atoms: _202  and  _205
REMARK   79  A    between atoms: _205  and  _206
REMARK   80  A    between atoms: _210  and  _211
REMARK   81  A    between atoms: _216  and  _218
REMARK   82  A    between atoms: _218  and  _219
REMARK   83  A    between atoms: _218  and  _221
REMARK   84  A    between atoms: _221  and  _222
REMARK   85  A    between atoms: _227  and  _228
REMARK   86  A    between atoms: _230  and  _232
REMARK   87  A    between atoms: _232  and  _233
REMARK   88  A    between atoms: _232  and  _235
REMARK   89  A    between atoms: _238  and  _240
REMARK   90  A    between atoms: _240  and  _241
REMARK   91  A    between atoms: _240  and  _243
REMARK   92  A    between atoms: _243  and  _244
REMARK   93  A    between atoms: _246  and  _248
REMARK   94  A    between atoms: _248  and  _249
REMARK   95  A    between atoms: _248  and  _251
REMARK   96  A    between atoms: _254  and  _256
REMARK   97  A    between atoms: _256  and  _257
REMARK   98  A    between atoms: _256  and  _259
REMARK   99  A    between atoms: _259  and  _260
REMARK  100  A    between atoms: _265  and  _266
REMARK  101  A    between atoms: _268  and  _270
REMARK  102  A    between atoms: _270  and  _271
REMARK  103  A    between atoms: _270  and  _273
REMARK  104  A    between atoms: _276  and  _278
REMARK  105  A    between atoms: _278  and  _279
REMARK  106  A    between atoms: _278  and  _281
REMARK  107  A    between atoms: _284  and  _286
REMARK  108  A    between atoms: _286  and  _287
REMARK  109  A    between atoms: _286  and  _289
REMARK  110  A    between atoms: _289  and  _290
REMARK  111  A    between atoms: _290  and  _291
REMARK  112  A    between atoms: _294  and  _295
REMARK                            x       y       z     vdW  Elec       q    Type
REMARK                         _______ _______ _______ _____ _____    ______ ____
ROOT
ATOM      1  O   HOH     1      -0.238  -6.603 -14.466  0.00  0.00    +0.000 OA
ENDROOT
TORSDOF 0
REMARK  Name = ../refined-set-2016/4pnu/4pnu_pocket.pdb
REMARK  112 active torsions:
REMARK  status: ('A' for Active; 'I' for Inactive)
REMARK    1  A    between atoms: _1  and  _3
REMARK    2  A    between atoms: _3  and  _4
REMARK    3  A    between atoms: _3  and  _6
REMARK    4  A    between atoms: _6  and  _7
REMARK    5  A    between atoms: _9  and  _11
REMARK    6  A    between atoms: _11  and  _12
REMARK    7  A    between atoms: _11  and  _14
REMARK    8  A    between atoms: _14  and  _15
REMARK    9  A    between atoms: _18  and  _20
REMARK   10  A    between atoms: _20  and  _21
REMARK   11  A    between atoms: _20  and  _23
REMARK   12  A    between atoms: _23  and  _24
REMARK   13  A    between atoms: _24  and  _25
REMARK   14  A    between atoms: _25  and  _26
REMARK   15  A    between atoms: _35  and  _37
REMARK   16  A    between atoms: _37  and  _38
REMARK   17  A    between atoms: _37  and  _40
REMARK   18  A    between atoms: _40  and  _41
REMARK   19  A    between atoms: _46  and  _47
REMARK   20  A    between atoms: _49  and  _51
REMARK   21  A    between atoms: _51  and  _52
REMARK   22  A    between atoms: _51  and  _54
REMARK   23  A    between atoms: _54  and  _55
REMARK   24  A    between atoms: _58  and  _60
REMARK   25  A    between atoms: _60  and  _61
REMARK   26  A    between atoms: _64  and  _66
REMARK   27  A    between atoms: _66  and  _67
REMARK   28  A    between atoms: _66  and  _69
REMARK   29  A    between atoms: _69  and  _70
REMARK   30  A    between atoms: _73  and  _75
REMARK   31  A    between atoms: _75  and  _76
REMARK   32  A    between atoms: _75  and  _78
REMARK   33  A    between atoms: _78  and  _79
REMARK   34  A    between atoms: _82  and  _84
REMARK   35  A    between atoms: _84  and  _85
REMARK   36  A    between atoms: _87  and  _89
REMARK   37  A    between atoms: _89  and  _90
REMARK   38  A    between atoms: _89  and  _92
REMARK   39  A    between atoms: _92  and  _93
REMARK   40  A    between atoms: _98  and  _100
REMARK   41  A    between atoms: _100  and  _101
REMARK   42  A    between atoms: _100  and  _103
REMARK   43  A    between atoms: _103  and  _104
REMARK   44  A    between atoms: _104  and  _105
REMARK   45  A    between atoms: _105  and  _106
REMARK   46  A    between atoms: _115  and  _117
REMARK   47  A    between atoms: _117  and  _118
REMARK   48  A    between atoms: _117  and  _120
REMARK   49  A    between atoms: _120  and  _121
REMARK   50  A    between atoms: _124  and  _126
REMARK   51  A    between atoms: _126  and  _127
REMARK   52  A    between atoms: _130  and  _132
REMARK   53  A    between atoms: _132  and  _133
REMARK   54  A    between atoms: _132  and  _135
REMARK   55  A    between atoms: _135  and  _136
REMARK   56  A    between atoms: _136  and  _137
REMARK   57  A    between atoms: _137  and  _138
REMARK   58  A    between atoms: _147  and  _149
REMARK   59  A    between atoms: _149  and  _150
REMARK   60  A    between atoms: _149  and  _152
REMARK   61  A    between atoms: _152  and  _153
REMARK   62  A    between atoms: _160  and  _161
REMARK   63  A    between atoms: _166  and  _168
REMARK   64  A    between atoms: _168  and  _169
REMARK   65  A    between atoms: _168  and  _171
REMARK   66  A    between atoms: _171  and  _172
REMARK   67  A    between atoms: _175  and  _177
REMARK   68  A    between atoms: _177  and  _178
REMARK   69  A    between atoms: _177  and  _180
REMARK   70  A    between atoms: _180  and  _181
REMARK   71  A    between atoms: _181  and  _182
REMARK   72  A    between atoms: _182  and  _183
REMARK   73  A    between atoms: _192  and  _194
REMARK   74  A    between atoms: _194  and  _195
REMARK   75  A    between atoms: _194  and  _197
REMARK   76  A    between atoms: _200  and  _202
REMARK   77  A    between atoms: _202  and  _203
REMARK   78  A    between atoms: _202  and  _205
REMARK   79  A    between atoms: _205  and  _206
REMARK   80  A    between atoms: _210  and  _211
REMARK   81  A    between atoms: _216  and  _218
REMARK   82  A    between atoms: _218  and  _219
REMARK   83  A    between atoms: _218  and  _221
REMARK   84  A    between atoms: _221  and  _222
REMARK   85  A    between atoms: _227  and  _228
REMARK   86  A    between atoms: _230  and  _232
REMARK   87  A    between atoms: _232  and  _233
REMARK   88  A    between atoms: _232  and  _235
REMARK   89  A    between atoms: _238  and  _240
REMARK   90  A    between atoms: _240  and  _241
REMARK   91  A    between atoms: _240  and  _243
REMARK   92  A    between atoms: _243  and  _244
REMARK   93  A    between atoms: _246  and  _248
REMARK   94  A    between atoms: _248  and  _249
REMARK   95  A    between atoms: _248  and  _251
REMARK   96  A    between atoms: _254  and  _256
REMARK   97  A    between atoms: _256  and  _257
REMARK   98  A    between atoms: _256  and  _259
REMARK   99  A    between atoms: _259  and  _260
REMARK  100  A    between atoms: _265  and  _266
REMARK  101  A    between atoms: _268  and  _270
REMARK  102  A    between atoms: _270  and  _271
REMARK  103  A    between atoms: _270  and  _273
REMARK  104  A    between atoms: _276  and  _278
REMARK  105  A    between atoms: _278  and  _279
REMARK  106  A    between atoms: _278  and  _281
REMARK  107  A    between atoms: _284  and  _286
REMARK  108  A    between atoms: _286  and  _287
REMARK  109  A    between atoms: _286  and  _289
REMARK  110  A    between atoms: _289  and  _290
REMARK  111  A    between atoms: _290  and  _291
REMARK  112  A    between atoms: _294  and  _295
REMARK                            x       y       z     vdW  Elec       q    Type
REMARK                         _______ _______ _______ _____ _____    ______ ____
ROOT
ATOM      1  O   HOH     1       2.533 -12.001  -4.653  0.00  0.00    +0.000 OA
ENDROOT
TORSDOF 0
REMARK  Name = ../refined-set-2016/4pnu/4pnu_pocket.pdb
REMARK  112 active torsions:
REMARK  status: ('A' for Active; 'I' for Inactive)
REMARK    1  A    between atoms: _1  and  _3
REMARK    2  A    between atoms: _3  and  _4
REMARK    3  A    between atoms: _3  and  _6
REMARK    4  A    between atoms: _6  and  _7
REMARK    5  A    between atoms: _9  and  _11
REMARK    6  A    between atoms: _11  and  _12
REMARK    7  A    between atoms: _11  and  _14
REMARK    8  A    between atoms: _14  and  _15
REMARK    9  A    between atoms: _18  and  _20
REMARK   10  A    between atoms: _20  and  _21
REMARK   11  A    between atoms: _20  and  _23
REMARK   12  A    between atoms: _23  and  _24
REMARK   13  A    between atoms: _24  and  _25
REMARK   14  A    between atoms: _25  and  _26
REMARK   15  A    between atoms: _35  and  _37
REMARK   16  A    between atoms: _37  and  _38
REMARK   17  A    between atoms: _37  and  _40
REMARK   18  A    between atoms: _40  and  _41
REMARK   19  A    between atoms: _46  and  _47
REMARK   20  A    between atoms: _49  and  _51
REMARK   21  A    between atoms: _51  and  _52
REMARK   22  A    between atoms: _51  and  _54
REMARK   23  A    between atoms: _54  and  _55
REMARK   24  A    between atoms: _58  and  _60
REMARK   25  A    between atoms: _60  and  _61
REMARK   26  A    between atoms: _64  and  _66
REMARK   27  A    between atoms: _66  and  _67
REMARK   28  A    between atoms: _66  and  _69
REMARK   29  A    between atoms: _69  and  _70
REMARK   30  A    between atoms: _73  and  _75
REMARK   31  A    between atoms: _75  and  _76
REMARK   32  A    between atoms: _75  and  _78
REMARK   33  A    between atoms: _78  and  _79
REMARK   34  A    between atoms: _82  and  _84
REMARK   35  A    between atoms: _84  and  _85
REMARK   36  A    between atoms: _87  and  _89
REMARK   37  A    between atoms: _89  and  _90
REMARK   38  A    between atoms: _89  and  _92
REMARK   39  A    between atoms: _92  and  _93
REMARK   40  A    between atoms: _98  and  _100
REMARK   41  A    between atoms: _100  and  _101
REMARK   42  A    between atoms: _100  and  _103
REMARK   43  A    between atoms: _103  and  _104
REMARK   44  A    between atoms: _104  and  _105
REMARK   45  A    between atoms: _105  and  _106
REMARK   46  A    between atoms: _115  and  _117
REMARK   47  A    between atoms: _117  and  _118
REMARK   48  A    between atoms: _117  and  _120
REMARK   49  A    between atoms: _120  and  _121
REMARK   50  A    between atoms: _124  and  _126
REMARK   51  A    between atoms: _126  and  _127
REMARK   52  A    between atoms: _130  and  _132
REMARK   53  A    between atoms: _132  and  _133
REMARK   54  A    between atoms: _132  and  _135
REMARK   55  A    between atoms: _135  and  _136
REMARK   56  A    between atoms: _136  and  _137
REMARK   57  A    between atoms: _137  and  _138
REMARK   58  A    between atoms: _147  and  _149
REMARK   59  A    between atoms: _149  and  _150
REMARK   60  A    between atoms: _149  and  _152
REMARK   61  A    between atoms: _152  and  _153
REMARK   62  A    between atoms: _160  and  _161
REMARK   63  A    between atoms: _166  and  _168
REMARK   64  A    between atoms: _168  and  _169
REMARK   65  A    between atoms: _168  and  _171
REMARK   66  A    between atoms: _171  and  _172
REMARK   67  A    between atoms: _175  and  _177
REMARK   68  A    between atoms: _177  and  _178
REMARK   69  A    between atoms: _177  and  _180
REMARK   70  A    between atoms: _180  and  _181
REMARK   71  A    between atoms: _181  and  _182
REMARK   72  A    between atoms: _182  and  _183
REMARK   73  A    between atoms: _192  and  _194
REMARK   74  A    between atoms: _194  and  _195
REMARK   75  A    between atoms: _194  and  _197
REMARK   76  A    between atoms: _200  and  _202
REMARK   77  A    between atoms: _202  and  _203
REMARK   78  A    between atoms: _202  and  _205
REMARK   79  A    between atoms: _205  and  _206
REMARK   80  A    between atoms: _210  and  _211
REMARK   81  A    between atoms: _216  and  _218
REMARK   82  A    between atoms: _218  and  _219
REMARK   83  A    between atoms: _218  and  _221
REMARK   84  A    between atoms: _221  and  _222
REMARK   85  A    between atoms: _227  and  _228
REMARK   86  A    between atoms: _230  and  _232
REMARK   87  A    between atoms: _232  and  _233
REMARK   88  A    between atoms: _232  and  _235
REMARK   89  A    between atoms: _238  and  _240
REMARK   90  A    between atoms: _240  and  _241
REMARK   91  A    between atoms: _240  and  _243
REMARK   92  A    between atoms: _243  and  _244
REMARK   93  A    between atoms: _246  and  _248
REMARK   94  A    between atoms: _248  and  _249
REMARK   95  A    between atoms: _248  and  _251
REMARK   96  A    between atoms: _254  and  _256
REMARK   97  A    between atoms: _256  and  _257
REMARK   98  A    between atoms: _256  and  _259
REMARK   99  A    between atoms: _259  and  _260
REMARK  100  A    between atoms: _265  and  _266
REMARK  101  A    between atoms: _268  and  _270
REMARK  102  A    between atoms: _270  and  _271
REMARK  103  A    between atoms: _270  and  _273
REMARK  104  A    between atoms: _276  and  _278
REMARK  105  A    between atoms: _278  and  _279
REMARK  106  A    between atoms: _278  and  _281
REMARK  107  A    between atoms: _284  and  _286
REMARK  108  A    between atoms: _286  and  _287
REMARK  109  A    between atoms: _286  and  _289
REMARK  110  A    between atoms: _289  and  _290
REMARK  111  A    between atoms: _290  and  _291
REMARK  112  A    between atoms: _294  and  _295
REMARK                            x       y       z     vdW  Elec       q    Type
REMARK                         _______ _______ _______ _____ _____    ______ ____
ROOT
ATOM      1  O   HOH     1      11.123  -4.429 -13.633  0.00  0.00    +0.000 OA
ENDROOT
TORSDOF 0
REMARK  Name = ../refined-set-2016/4pnu/4pnu_pocket.pdb
REMARK  112 active torsions:
REMARK  status: ('A' for Active; 'I' for Inactive)
REMARK    1  A    between atoms: _1  and  _3
REMARK    2  A    between atoms: _3  and  _4
REMARK    3  A    between atoms: _3  and  _6
REMARK    4  A    between atoms: _6  and  _7
REMARK    5  A    between atoms: _9  and  _11
REMARK    6  A    between atoms: _11  and  _12
REMARK    7  A    between atoms: _11  and  _14
REMARK    8  A    between atoms: _14  and  _15
REMARK    9  A    between atoms: _18  and  _20
REMARK   10  A    between atoms: _20  and  _21
REMARK   11  A    between atoms: _20  and  _23
REMARK   12  A    between atoms: _23  and  _24
REMARK   13  A    between atoms: _24  and  _25
REMARK   14  A    between atoms: _25  and  _26
REMARK   15  A    between atoms: _35  and  _37
REMARK   16  A    between atoms: _37  and  _38
REMARK   17  A    between atoms: _37  and  _40
REMARK   18  A    between atoms: _40  and  _41
REMARK   19  A    between atoms: _46  and  _47
REMARK   20  A    between atoms: _49  and  _51
REMARK   21  A    between atoms: _51  and  _52
REMARK   22  A    between atoms: _51  and  _54
REMARK   23  A    between atoms: _54  and  _55
REMARK   24  A    between atoms: _58  and  _60
REMARK   25  A    between atoms: _60  and  _61
REMARK   26  A    between atoms: _64  and  _66
REMARK   27  A    between atoms: _66  and  _67
REMARK   28  A    between atoms: _66  and  _69
REMARK   29  A    between atoms: _69  and  _70
REMARK   30  A    between atoms: _73  and  _75
REMARK   31  A    between atoms: _75  and  _76
REMARK   32  A    between atoms: _75  and  _78
REMARK   33  A    between atoms: _78  and  _79
REMARK   34  A    between atoms: _82  and  _84
REMARK   35  A    between atoms: _84  and  _85
REMARK   36  A    between atoms: _87  and  _89
REMARK   37  A    between atoms: _89  and  _90
REMARK   38  A    between atoms: _89  and  _92
REMARK   39  A    between atoms: _92  and  _93
REMARK   40  A    between atoms: _98  and  _100
REMARK   41  A    between atoms: _100  and  _101
REMARK   42  A    between atoms: _100  and  _103
REMARK   43  A    between atoms: _103  and  _104
REMARK   44  A    between atoms: _104  and  _105
REMARK   45  A    between atoms: _105  and  _106
REMARK   46  A    between atoms: _115  and  _117
REMARK   47  A    between atoms: _117  and  _118
REMARK   48  A    between atoms: _117  and  _120
REMARK   49  A    between atoms: _120  and  _121
REMARK   50  A    between atoms: _124  and  _126
REMARK   51  A    between atoms: _126  and  _127
REMARK   52  A    between atoms: _130  and  _132
REMARK   53  A    between atoms: _132  and  _133
REMARK   54  A    between atoms: _132  and  _135
REMARK   55  A    between atoms: _135  and  _136
REMARK   56  A    between atoms: _136  and  _137
REMARK   57  A    between atoms: _137  and  _138
REMARK   58  A    between atoms: _147  and  _149
REMARK   59  A    between atoms: _149  and  _150
REMARK   60  A    between atoms: _149  and  _152
REMARK   61  A    between atoms: _152  and  _153
REMARK   62  A    between atoms: _160  and  _161
REMARK   63  A    between atoms: _166  and  _168
REMARK   64  A    between atoms: _168  and  _169
REMARK   65  A    between atoms: _168  and  _171
REMARK   66  A    between atoms: _171  and  _172
REMARK   67  A    between atoms: _175  and  _177
REMARK   68  A    between atoms: _177  and  _178
REMARK   69  A    between atoms: _177  and  _180
REMARK   70  A    between atoms: _180  and  _181
REMARK   71  A    between atoms: _181  and  _182
REMARK   72  A    between atoms: _182  and  _183
REMARK   73  A    between atoms: _192  and  _194
REMARK   74  A    between atoms: _194  and  _195
REMARK   75  A    between atoms: _194  and  _197
REMARK   76  A    between atoms: _200  and  _202
REMARK   77  A    between atoms: _202  and  _203
REMARK   78  A    between atoms: _202  and  _205
REMARK   79  A    between atoms: _205  and  _206
REMARK   80  A    between atoms: _210  and  _211
REMARK   81  A    between atoms: _216  and  _218
REMARK   82  A    between atoms: _218  and  _219
REMARK   83  A    between atoms: _218  and  _221
REMARK   84  A    between atoms: _221  and  _222
REMARK   85  A    between atoms: _227  and  _228
REMARK   86  A    between atoms: _230  and  _232
REMARK   87  A    between atoms: _232  and  _233
REMARK   88  A    between atoms: _232  and  _235
REMARK   89  A    between atoms: _238  and  _240
REMARK   90  A    between atoms: _240  and  _241
REMARK   91  A    between atoms: _240  and  _243
REMARK   92  A    between atoms: _243  and  _244
REMARK   93  A    between atoms: _246  and  _248
REMARK   94  A    between atoms: _248  and  _249
REMARK   95  A    between atoms: _248  and  _251
REMARK   96  A    between atoms: _254  and  _256
REMARK   97  A    between atoms: _256  and  _257
REMARK   98  A    between atoms: _256  and  _259
REMARK   99  A    between atoms: _259  and  _260
REMARK  100  A    between atoms: _265  and  _266
REMARK  101  A    between atoms: _268  and  _270
REMARK  102  A    between atoms: _270  and  _271
REMARK  103  A    between atoms: _270  and  _273
REMARK  104  A    between atoms: _276  and  _278
REMARK  105  A    between atoms: _278  and  _279
REMARK  106  A    between atoms: _278  and  _281
REMARK  107  A    between atoms: _284  and  _286
REMARK  108  A    between atoms: _286  and  _287
REMARK  109  A    between atoms: _286  and  _289
REMARK  110  A    between atoms: _289  and  _290
REMARK  111  A    between atoms: _290  and  _291
REMARK  112  A    between atoms: _294  and  _295
REMARK                            x       y       z     vdW  Elec       q    Type
REMARK                         _______ _______ _______ _____ _____    ______ ____
ROOT
ATOM      1  O   HOH     1      10.803 -11.165 -11.924  0.00  0.00    +0.000 OA
ENDROOT
TORSDOF 0
REMARK  Name = ../refined-set-2016/4pnu/4pnu_pocket.pdb
REMARK  112 active torsions:
REMARK  status: ('A' for Active; 'I' for Inactive)
REMARK    1  A    between atoms: _1  and  _3
REMARK    2  A    between atoms: _3  and  _4
REMARK    3  A    between atoms: _3  and  _6
REMARK    4  A    between atoms: _6  and  _7
REMARK    5  A    between atoms: _9  and  _11
REMARK    6  A    between atoms: _11  and  _12
REMARK    7  A    between atoms: _11  and  _14
REMARK    8  A    between atoms: _14  and  _15
REMARK    9  A    between atoms: _18  and  _20
REMARK   10  A    between atoms: _20  and  _21
REMARK   11  A    between atoms: _20  and  _23
REMARK   12  A    between atoms: _23  and  _24
REMARK   13  A    between atoms: _24  and  _25
REMARK   14  A    between atoms: _25  and  _26
REMARK   15  A    between atoms: _35  and  _37
REMARK   16  A    between atoms: _37  and  _38
REMARK   17  A    between atoms: _37  and  _40
REMARK   18  A    between atoms: _40  and  _41
REMARK   19  A    between atoms: _46  and  _47
REMARK   20  A    between atoms: _49  and  _51
REMARK   21  A    between atoms: _51  and  _52
REMARK   22  A    between atoms: _51  and  _54
REMARK   23  A    between atoms: _54  and  _55
REMARK   24  A    between atoms: _58  and  _60
REMARK   25  A    between atoms: _60  and  _61
REMARK   26  A    between atoms: _64  and  _66
REMARK   27  A    between atoms: _66  and  _67
REMARK   28  A    between atoms: _66  and  _69
REMARK   29  A    between atoms: _69  and  _70
REMARK   30  A    between atoms: _73  and  _75
REMARK   31  A    between atoms: _75  and  _76
REMARK   32  A    between atoms: _75  and  _78
REMARK   33  A    between atoms: _78  and  _79
REMARK   34  A    between atoms: _82  and  _84
REMARK   35  A    between atoms: _84  and  _85
REMARK   36  A    between atoms: _87  and  _89
REMARK   37  A    between atoms: _89  and  _90
REMARK   38  A    between atoms: _89  and  _92
REMARK   39  A    between atoms: _92  and  _93
REMARK   40  A    between atoms: _98  and  _100
REMARK   41  A    between atoms: _100  and  _101
REMARK   42  A    between atoms: _100  and  _103
REMARK   43  A    between atoms: _103  and  _104
REMARK   44  A    between atoms: _104  and  _105
REMARK   45  A    between atoms: _105  and  _106
REMARK   46  A    between atoms: _115  and  _117
REMARK   47  A    between atoms: _117  and  _118
REMARK   48  A    between atoms: _117  and  _120
REMARK   49  A    between atoms: _120  and  _121
REMARK   50  A    between atoms: _124  and  _126
REMARK   51  A    between atoms: _126  and  _127
REMARK   52  A    between atoms: _130  and  _132
REMARK   53  A    between atoms: _132  and  _133
REMARK   54  A    between atoms: _132  and  _135
REMARK   55  A    between atoms: _135  and  _136
REMARK   56  A    between atoms: _136  and  _137
REMARK   57  A    between atoms: _137  and  _138
REMARK   58  A    between atoms: _147  and  _149
REMARK   59  A    between atoms: _149  and  _150
REMARK   60  A    between atoms: _149  and  _152
REMARK   61  A    between atoms: _152  and  _153
REMARK   62  A    between atoms: _160  and  _161
REMARK   63  A    between atoms: _166  and  _168
REMARK   64  A    between atoms: _168  and  _169
REMARK   65  A    between atoms: _168  and  _171
REMARK   66  A    between atoms: _171  and  _172
REMARK   67  A    between atoms: _175  and  _177
REMARK   68  A    between atoms: _177  and  _178
REMARK   69  A    between atoms: _177  and  _180
REMARK   70  A    between atoms: _180  and  _181
REMARK   71  A    between atoms: _181  and  _182
REMARK   72  A    between atoms: _182  and  _183
REMARK   73  A    between atoms: _192  and  _194
REMARK   74  A    between atoms: _194  and  _195
REMARK   75  A    between atoms: _194  and  _197
REMARK   76  A    between atoms: _200  and  _202
REMARK   77  A    between atoms: _202  and  _203
REMARK   78  A    between atoms: _202  and  _205
REMARK   79  A    between atoms: _205  and  _206
REMARK   80  A    between atoms: _210  and  _211
REMARK   81  A    between atoms: _216  and  _218
REMARK   82  A    between atoms: _218  and  _219
REMARK   83  A    between atoms: _218  and  _221
REMARK   84  A    between atoms: _221  and  _222
REMARK   85  A    between atoms: _227  and  _228
REMARK   86  A    between atoms: _230  and  _232
REMARK   87  A    between atoms: _232  and  _233
REMARK   88  A    between atoms: _232  and  _235
REMARK   89  A    between atoms: _238  and  _240
REMARK   90  A    between atoms: _240  and  _241
REMARK   91  A    between atoms: _240  and  _243
REMARK   92  A    between atoms: _243  and  _244
REMARK   93  A    between atoms: _246  and  _248
REMARK   94  A    between atoms: _248  and  _249
REMARK   95  A    between atoms: _248  and  _251
REMARK   96  A    between atoms: _254  and  _256
REMARK   97  A    between atoms: _256  and  _257
REMARK   98  A    between atoms: _256  and  _259
REMARK   99  A    between atoms: _259  and  _260
REMARK  100  A    between atoms: _265  and  _266
REMARK  101  A    between atoms: _268  and  _270
REMARK  102  A    between atoms: _270  and  _271
REMARK  103  A    between atoms: _270  and  _273
REMARK  104  A    between atoms: _276  and  _278
REMARK  105  A    between atoms: _278  and  _279
REMARK  106  A    between atoms: _278  and  _281
REMARK  107  A    between atoms: _284  and  _286
REMARK  108  A    between atoms: _286  and  _287
REMARK  109  A    between atoms: _286  and  _289
REMARK  110  A    between atoms: _289  and  _290
REMARK  111  A    between atoms: _290  and  _291
REMARK  112  A    between atoms: _294  and  _295
REMARK                            x       y       z     vdW  Elec       q    Type
REMARK                         _______ _______ _______ _____ _____    ______ ____
ROOT
ATOM      1  O   HOH     1       8.554   0.863 -16.559  0.00  0.00    +0.000 OA
ENDROOT
TORSDOF 0
REMARK  Name = ../refined-set-2016/4pnu/4pnu_pocket.pdb
REMARK  112 active torsions:
REMARK  status: ('A' for Active; 'I' for Inactive)
REMARK    1  A    between atoms: _1  and  _3
REMARK    2  A    between atoms: _3  and  _4
REMARK    3  A    between atoms: _3  and  _6
REMARK    4  A    between atoms: _6  and  _7
REMARK    5  A    between atoms: _9  and  _11
REMARK    6  A    between atoms: _11  and  _12
REMARK    7  A    between atoms: _11  and  _14
REMARK    8  A    between atoms: _14  and  _15
REMARK    9  A    between atoms: _18  and  _20
REMARK   10  A    between atoms: _20  and  _21
REMARK   11  A    between atoms: _20  and  _23
REMARK   12  A    between atoms: _23  and  _24
REMARK   13  A    between atoms: _24  and  _25
REMARK   14  A    between atoms: _25  and  _26
REMARK   15  A    between atoms: _35  and  _37
REMARK   16  A    between atoms: _37  and  _38
REMARK   17  A    between atoms: _37  and  _40
REMARK   18  A    between atoms: _40  and  _41
REMARK   19  A    between atoms: _46  and  _47
REMARK   20  A    between atoms: _49  and  _51
REMARK   21  A    between atoms: _51  and  _52
REMARK   22  A    between atoms: _51  and  _54
REMARK   23  A    between atoms: _54  and  _55
REMARK   24  A    between atoms: _58  and  _60
REMARK   25  A    between atoms: _60  and  _61
REMARK   26  A    between atoms: _64  and  _66
REMARK   27  A    between atoms: _66  and  _67
REMARK   28  A    between atoms: _66  and  _69
REMARK   29  A    between atoms: _69  and  _70
REMARK   30  A    between atoms: _73  and  _75
REMARK   31  A    between atoms: _75  and  _76
REMARK   32  A    between atoms: _75  and  _78
REMARK   33  A    between atoms: _78  and  _79
REMARK   34  A    between atoms: _82  and  _84
REMARK   35  A    between atoms: _84  and  _85
REMARK   36  A    between atoms: _87  and  _89
REMARK   37  A    between atoms: _89  and  _90
REMARK   38  A    between atoms: _89  and  _92
REMARK   39  A    between atoms: _92  and  _93
REMARK   40  A    between atoms: _98  and  _100
REMARK   41  A    between atoms: _100  and  _101
REMARK   42  A    between atoms: _100  and  _103
REMARK   43  A    between atoms: _103  and  _104
REMARK   44  A    between atoms: _104  and  _105
REMARK   45  A    between atoms: _105  and  _106
REMARK   46  A    between atoms: _115  and  _117
REMARK   47  A    between atoms: _117  and  _118
REMARK   48  A    between atoms: _117  and  _120
REMARK   49  A    between atoms: _120  and  _121
REMARK   50  A    between atoms: _124  and  _126
REMARK   51  A    between atoms: _126  and  _127
REMARK   52  A    between atoms: _130  and  _132
REMARK   53  A    between atoms: _132  and  _133
REMARK   54  A    between atoms: _132  and  _135
REMARK   55  A    between atoms: _135  and  _136
REMARK   56  A    between atoms: _136  and  _137
REMARK   57  A    between atoms: _137  and  _138
REMARK   58  A    between atoms: _147  and  _149
REMARK   59  A    between atoms: _149  and  _150
REMARK   60  A    between atoms: _149  and  _152
REMARK   61  A    between atoms: _152  and  _153
REMARK   62  A    between atoms: _160  and  _161
REMARK   63  A    between atoms: _166  and  _168
REMARK   64  A    between atoms: _168  and  _169
REMARK   65  A    between atoms: _168  and  _171
REMARK   66  A    between atoms: _171  and  _172
REMARK   67  A    between atoms: _175  and  _177
REMARK   68  A    between atoms: _177  and  _178
REMARK   69  A    between atoms: _177  and  _180
REMARK   70  A    between atoms: _180  and  _181
REMARK   71  A    between atoms: _181  and  _182
REMARK   72  A    between atoms: _182  and  _183
REMARK   73  A    between atoms: _192  and  _194
REMARK   74  A    between atoms: _194  and  _195
REMARK   75  A    between atoms: _194  and  _197
REMARK   76  A    between atoms: _200  and  _202
REMARK   77  A    between atoms: _202  and  _203
REMARK   78  A    between atoms: _202  and  _205
REMARK   79  A    between atoms: _205  and  _206
REMARK   80  A    between atoms: _210  and  _211
REMARK   81  A    between atoms: _216  and  _218
REMARK   82  A    between atoms: _218  and  _219
REMARK   83  A    between atoms: _218  and  _221
REMARK   84  A    between atoms: _221  and  _222
REMARK   85  A    between atoms: _227  and  _228
REMARK   86  A    between atoms: _230  and  _232
REMARK   87  A    between atoms: _232  and  _233
REMARK   88  A    between atoms: _232  and  _235
REMARK   89  A    between atoms: _238  and  _240
REMARK   90  A    between atoms: _240  and  _241
REMARK   91  A    between atoms: _240  and  _243
REMARK   92  A    between atoms: _243  and  _244
REMARK   93  A    between atoms: _246  and  _248
REMARK   94  A    between atoms: _248  and  _249
REMARK   95  A    between atoms: _248  and  _251
REMARK   96  A    between atoms: _254  and  _256
REMARK   97  A    between atoms: _256  and  _257
REMARK   98  A    between atoms: _256  and  _259
REMARK   99  A    between atoms: _259  and  _260
REMARK  100  A    between atoms: _265  and  _266
REMARK  101  A    between atoms: _268  and  _270
REMARK  102  A    between atoms: _270  and  _271
REMARK  103  A    between atoms: _270  and  _273
REMARK  104  A    between atoms: _276  and  _278
REMARK  105  A    between atoms: _278  and  _279
REMARK  106  A    between atoms: _278  and  _281
REMARK  107  A    between atoms: _284  and  _286
REMARK  108  A    between atoms: _286  and  _287
REMARK  109  A    between atoms: _286  and  _289
REMARK  110  A    between atoms: _289  and  _290
REMARK  111  A    between atoms: _290  and  _291
REMARK  112  A    between atoms: _294  and  _295
REMARK                            x       y       z     vdW  Elec       q    Type
REMARK                         _______ _______ _______ _____ _____    ______ ____
ROOT
ATOM      1  O   HOH     1      -3.294  -7.782 -10.623  0.00  0.00    +0.000 OA
ENDROOT
TORSDOF 0
REMARK  Name = ../refined-set-2016/4pnu/4pnu_pocket.pdb
REMARK  112 active torsions:
REMARK  status: ('A' for Active; 'I' for Inactive)
REMARK    1  A    between atoms: _1  and  _3
REMARK    2  A    between atoms: _3  and  _4
REMARK    3  A    between atoms: _3  and  _6
REMARK    4  A    between atoms: _6  and  _7
REMARK    5  A    between atoms: _9  and  _11
REMARK    6  A    between atoms: _11  and  _12
REMARK    7  A    between atoms: _11  and  _14
REMARK    8  A    between atoms: _14  and  _15
REMARK    9  A    between atoms: _18  and  _20
REMARK   10  A    between atoms: _20  and  _21
REMARK   11  A    between atoms: _20  and  _23
REMARK   12  A    between atoms: _23  and  _24
REMARK   13  A    between atoms: _24  and  _25
REMARK   14  A    between atoms: _25  and  _26
REMARK   15  A    between atoms: _35  and  _37
REMARK   16  A    between atoms: _37  and  _38
REMARK   17  A    between atoms: _37  and  _40
REMARK   18  A    between atoms: _40  and  _41
REMARK   19  A    between atoms: _46  and  _47
REMARK   20  A    between atoms: _49  and  _51
REMARK   21  A    between atoms: _51  and  _52
REMARK   22  A    between atoms: _51  and  _54
REMARK   23  A    between atoms: _54  and  _55
REMARK   24  A    between atoms: _58  and  _60
REMARK   25  A    between atoms: _60  and  _61
REMARK   26  A    between atoms: _64  and  _66
REMARK   27  A    between atoms: _66  and  _67
REMARK   28  A    between atoms: _66  and  _69
REMARK   29  A    between atoms: _69  and  _70
REMARK   30  A    between atoms: _73  and  _75
REMARK   31  A    between atoms: _75  and  _76
REMARK   32  A    between atoms: _75  and  _78
REMARK   33  A    between atoms: _78  and  _79
REMARK   34  A    between atoms: _82  and  _84
REMARK   35  A    between atoms: _84  and  _85
REMARK   36  A    between atoms: _87  and  _89
REMARK   37  A    between atoms: _89  and  _90
REMARK   38  A    between atoms: _89  and  _92
REMARK   39  A    between atoms: _92  and  _93
REMARK   40  A    between atoms: _98  and  _100
REMARK   41  A    between atoms: _100  and  _101
REMARK   42  A    between atoms: _100  and  _103
REMARK   43  A    between atoms: _103  and  _104
REMARK   44  A    between atoms: _104  and  _105
REMARK   45  A    between atoms: _105  and  _106
REMARK   46  A    between atoms: _115  and  _117
REMARK   47  A    between atoms: _117  and  _118
REMARK   48  A    between atoms: _117  and  _120
REMARK   49  A    between atoms: _120  and  _121
REMARK   50  A    between atoms: _124  and  _126
REMARK   51  A    between atoms: _126  and  _127
REMARK   52  A    between atoms: _130  and  _132
REMARK   53  A    between atoms: _132  and  _133
REMARK   54  A    between atoms: _132  and  _135
REMARK   55  A    between atoms: _135  and  _136
REMARK   56  A    between atoms: _136  and  _137
REMARK   57  A    between atoms: _137  and  _138
REMARK   58  A    between atoms: _147  and  _149
REMARK   59  A    between atoms: _149  and  _150
REMARK   60  A    between atoms: _149  and  _152
REMARK   61  A    between atoms: _152  and  _153
REMARK   62  A    between atoms: _160  and  _161
REMARK   63  A    between atoms: _166  and  _168
REMARK   64  A    between atoms: _168  and  _169
REMARK   65  A    between atoms: _168  and  _171
REMARK   66  A    between atoms: _171  and  _172
REMARK   67  A    between atoms: _175  and  _177
REMARK   68  A    between atoms: _177  and  _178
REMARK   69  A    between atoms: _177  and  _180
REMARK   70  A    between atoms: _180  and  _181
REMARK   71  A    between atoms: _181  and  _182
REMARK   72  A    between atoms: _182  and  _183
REMARK   73  A    between atoms: _192  and  _194
REMARK   74  A    between atoms: _194  and  _195
REMARK   75  A    between atoms: _194  and  _197
REMARK   76  A    between atoms: _200  and  _202
REMARK   77  A    between atoms: _202  and  _203
REMARK   78  A    between atoms: _202  and  _205
REMARK   79  A    between atoms: _205  and  _206
REMARK   80  A    between atoms: _210  and  _211
REMARK   81  A    between atoms: _216  and  _218
REMARK   82  A    between atoms: _218  and  _219
REMARK   83  A    between atoms: _218  and  _221
REMARK   84  A    between atoms: _221  and  _222
REMARK   85  A    between atoms: _227  and  _228
REMARK   86  A    between atoms: _230  and  _232
REMARK   87  A    between atoms: _232  and  _233
REMARK   88  A    between atoms: _232  and  _235
REMARK   89  A    between atoms: _238  and  _240
REMARK   90  A    between atoms: _240  and  _241
REMARK   91  A    between atoms: _240  and  _243
REMARK   92  A    between atoms: _243  and  _244
REMARK   93  A    between atoms: _246  and  _248
REMARK   94  A    between atoms: _248  and  _249
REMARK   95  A    between atoms: _248  and  _251
REMARK   96  A    between atoms: _254  and  _256
REMARK   97  A    between atoms: _256  and  _257
REMARK   98  A    between atoms: _256  and  _259
REMARK   99  A    between atoms: _259  and  _260
REMARK  100  A    between atoms: _265  and  _266
REMARK  101  A    between atoms: _268  and  _270
REMARK  102  A    between atoms: _270  and  _271
REMARK  103  A    between atoms: _270  and  _273
REMARK  104  A    between atoms: _276  and  _278
REMARK  105  A    between atoms: _278  and  _279
REMARK  106  A    between atoms: _278  and  _281
REMARK  107  A    between atoms: _284  and  _286
REMARK  108  A    between atoms: _286  and  _287
REMARK  109  A    between atoms: _286  and  _289
REMARK  110  A    between atoms: _289  and  _290
REMARK  111  A    between atoms: _290  and  _291
REMARK  112  A    between atoms: _294  and  _295
REMARK                            x       y       z     vdW  Elec       q    Type
REMARK                         _______ _______ _______ _____ _____    ______ ____
ROOT
ATOM      1  O   HOH     1       7.305  -3.227 -15.917  0.00  0.00    +0.000 OA
ENDROOT
TORSDOF 0
