REMARK  Name = ../refined-set-2016/2zb1/2zb1_pocket.pdb
REMARK  235 active torsions:
REMARK  status: ('A' for Active; 'I' for Inactive)
REMARK    1  A    between atoms: _1  and  _3
REMARK    2  A    between atoms: _3  and  _4
REMARK    3  A    between atoms: _3  and  _6
REMARK    4  A    between atoms: _6  and  _7
REMARK    5  A    between atoms: _17  and  _19
REMARK    6  A    between atoms: _19  and  _20
REMARK    7  A    between atoms: _19  and  _22
REMARK    8  A    between atoms: _25  and  _27
REMARK    9  A    between atoms: _27  and  _28
REMARK   10  A    between atoms: _31  and  _33
REMARK   11  A    between atoms: _33  and  _34
REMARK   12  A    between atoms: _33  and  _36
REMARK   13  A    between atoms: _36  and  _37
REMARK   14  A    between atoms: _42  and  _43
REMARK   15  A    between atoms: _45  and  _47
REMARK   16  A    between atoms: _47  and  _48
REMARK   17  A    between atoms: _50  and  _52
REMARK   18  A    between atoms: _52  and  _53
REMARK   19  A    between atoms: _52  and  _55
REMARK   20  A    between atoms: _55  and  _56
REMARK   21  A    between atoms: _58  and  _60
REMARK   22  A    between atoms: _60  and  _61
REMARK   23  A    between atoms: _60  and  _63
REMARK   24  A    between atoms: _66  and  _68
REMARK   25  A    between atoms: _68  and  _69
REMARK   26  A    between atoms: _68  and  _71
REMARK   27  A    between atoms: _73  and  _75
REMARK   28  A    between atoms: _75  and  _76
REMARK   29  A    between atoms: _79  and  _81
REMARK   30  A    between atoms: _81  and  _82
REMARK   31  A    between atoms: _81  and  _84
REMARK   32  A    between atoms: _84  and  _85
REMARK   33  A    between atoms: _85  and  _86
REMARK   34  A    between atoms: _86  and  _87
REMARK   35  A    between atoms: _96  and  _98
REMARK   36  A    between atoms: _98  and  _99
REMARK   37  A    between atoms: _98  and  _101
REMARK   38  A    between atoms: _104  and  _106
REMARK   39  A    between atoms: _106  and  _107
REMARK   40  A    between atoms: _110  and  _112
REMARK   41  A    between atoms: _112  and  _113
REMARK   42  A    between atoms: _112  and  _115
REMARK   43  A    between atoms: _118  and  _120
REMARK   44  A    between atoms: _120  and  _121
REMARK   45  A    between atoms: _120  and  _123
REMARK   46  A    between atoms: _123  and  _124
REMARK   47  A    between atoms: _124  and  _125
REMARK   48  A    between atoms: _125  and  _126
REMARK   49  A    between atoms: _126  and  _127
REMARK   50  A    between atoms: _131  and  _133
REMARK   51  A    between atoms: _133  and  _134
REMARK   52  A    between atoms: _133  and  _136
REMARK   53  A    between atoms: _136  and  _137
REMARK   54  A    between atoms: _137  and  _138
REMARK   55  A    between atoms: _138  and  _139
REMARK   56  A    between atoms: _139  and  _140
REMARK   57  A    between atoms: _144  and  _146
REMARK   58  A    between atoms: _146  and  _147
REMARK   59  A    between atoms: _146  and  _149
REMARK   60  A    between atoms: _149  and  _150
REMARK   61  A    between atoms: _153  and  _155
REMARK   62  A    between atoms: _155  and  _156
REMARK   63  A    between atoms: _155  and  _158
REMARK   64  A    between atoms: _158  and  _159
REMARK   65  A    between atoms: _159  and  _160
REMARK   66  A    between atoms: _160  and  _161
REMARK   67  A    between atoms: _170  and  _172
REMARK   68  A    between atoms: _172  and  _173
REMARK   69  A    between atoms: _172  and  _175
REMARK   70  A    between atoms: _175  and  _176
REMARK   71  A    between atoms: _176  and  _177
REMARK   72  A    between atoms: _177  and  _178
REMARK   73  A    between atoms: _187  and  _189
REMARK   74  A    between atoms: _189  and  _190
REMARK   75  A    between atoms: _189  and  _192
REMARK   76  A    between atoms: _192  and  _193
REMARK   77  A    between atoms: _193  and  _194
REMARK   78  A    between atoms: _197  and  _199
REMARK   79  A    between atoms: _199  and  _200
REMARK   80  A    between atoms: _199  and  _202
REMARK   81  A    between atoms: _202  and  _203
REMARK   82  A    between atoms: _206  and  _208
REMARK   83  A    between atoms: _208  and  _209
REMARK   84  A    between atoms: _208  and  _211
REMARK   85  A    between atoms: _211  and  _212
REMARK   86  A    between atoms: _212  and  _213
REMARK   87  A    between atoms: _213  and  _214
REMARK   88  A    between atoms: _223  and  _225
REMARK   89  A    between atoms: _225  and  _226
REMARK   90  A    between atoms: _225  and  _228
REMARK   91  A    between atoms: _228  and  _229
REMARK   92  A    between atoms: _232  and  _234
REMARK   93  A    between atoms: _234  and  _235
REMARK   94  A    between atoms: _234  and  _237
REMARK   95  A    between atoms: _237  and  _238
REMARK   96  A    between atoms: _241  and  _243
REMARK   97  A    between atoms: _243  and  _244
REMARK   98  A    between atoms: _243  and  _246
REMARK   99  A    between atoms: _246  and  _247
REMARK  100  A    between atoms: _247  and  _248
REMARK  101  A    between atoms: _248  and  _249
REMARK  102  A    between atoms: _249  and  _250
REMARK  103  A    between atoms: _254  and  _256
REMARK  104  A    between atoms: _256  and  _257
REMARK  105  A    between atoms: _256  and  _259
REMARK  106  A    between atoms: _259  and  _260
REMARK  107  A    between atoms: _260  and  _261
REMARK  108  A    between atoms: _263  and  _265
REMARK  109  A    between atoms: _265  and  _266
REMARK  110  A    between atoms: _265  and  _268
REMARK  111  A    between atoms: _271  and  _273
REMARK  112  A    between atoms: _273  and  _274
REMARK  113  A    between atoms: _273  and  _276
REMARK  114  A    between atoms: _276  and  _277
REMARK  115  A    between atoms: _280  and  _282
REMARK  116  A    between atoms: _282  and  _283
REMARK  117  A    between atoms: _285  and  _287
REMARK  118  A    between atoms: _287  and  _288
REMARK  119  A    between atoms: _287  and  _290
REMARK  120  A    between atoms: _290  and  _291
REMARK  121  A    between atoms: _294  and  _296
REMARK  122  A    between atoms: _296  and  _297
REMARK  123  A    between atoms: _296  and  _299
REMARK  124  A    between atoms: _299  and  _300
REMARK  125  A    between atoms: _303  and  _305
REMARK  126  A    between atoms: _305  and  _306
REMARK  127  A    between atoms: _305  and  _308
REMARK  128  A    between atoms: _308  and  _309
REMARK  129  A    between atoms: _312  and  _314
REMARK  130  A    between atoms: _314  and  _315
REMARK  131  A    between atoms: _314  and  _317
REMARK  132  A    between atoms: _317  and  _318
REMARK  133  A    between atoms: _323  and  _324
REMARK  134  A    between atoms: _326  and  _328
REMARK  135  A    between atoms: _328  and  _329
REMARK  136  A    between atoms: _328  and  _331
REMARK  137  A    between atoms: _331  and  _332
REMARK  138  A    between atoms: _335  and  _337
REMARK  139  A    between atoms: _337  and  _338
REMARK  140  A    between atoms: _337  and  _340
REMARK  141  A    between atoms: _343  and  _345
REMARK  142  A    between atoms: _345  and  _346
REMARK  143  A    between atoms: _345  and  _348
REMARK  144  A    between atoms: _348  and  _349
REMARK  145  A    between atoms: _352  and  _354
REMARK  146  A    between atoms: _354  and  _355
REMARK  147  A    between atoms: _354  and  _357
REMARK  148  A    between atoms: _357  and  _358
REMARK  149  A    between atoms: _363  and  _365
REMARK  150  A    between atoms: _365  and  _366
REMARK  151  A    between atoms: _365  and  _368
REMARK  152  A    between atoms: _368  and  _369
REMARK  153  A    between atoms: _372  and  _374
REMARK  154  A    between atoms: _374  and  _375
REMARK  155  A    between atoms: _374  and  _377
REMARK  156  A    between atoms: _377  and  _378
REMARK  157  A    between atoms: _378  and  _379
REMARK  158  A    between atoms: _381  and  _383
REMARK  159  A    between atoms: _383  and  _384
REMARK  160  A    between atoms: _386  and  _388
REMARK  161  A    between atoms: _388  and  _389
REMARK  162  A    between atoms: _392  and  _394
REMARK  163  A    between atoms: _394  and  _395
REMARK  164  A    between atoms: _394  and  _397
REMARK  165  A    between atoms: _397  and  _398
REMARK  166  A    between atoms: _401  and  _403
REMARK  167  A    between atoms: _403  and  _404
REMARK  168  A    between atoms: _403  and  _406
REMARK  169  A    between atoms: _406  and  _407
REMARK  170  A    between atoms: _410  and  _412
REMARK  171  A    between atoms: _412  and  _413
REMARK  172  A    between atoms: _412  and  _415
REMARK  173  A    between atoms: _415  and  _416
REMARK  174  A    between atoms: _421  and  _423
REMARK  175  A    between atoms: _423  and  _424
REMARK  176  A    between atoms: _423  and  _426
REMARK  177  A    between atoms: _426  and  _427
REMARK  178  A    between atoms: _432  and  _434
REMARK  179  A    between atoms: _434  and  _435
REMARK  180  A    between atoms: _434  and  _437
REMARK  181  A    between atoms: _437  and  _438
REMARK  182  A    between atoms: _441  and  _443
REMARK  183  A    between atoms: _443  and  _444
REMARK  184  A    between atoms: _443  and  _446
REMARK  185  A    between atoms: _446  and  _447
REMARK  186  A    between atoms: _450  and  _452
REMARK  187  A    between atoms: _452  and  _453
REMARK  188  A    between atoms: _452  and  _455
REMARK  189  A    between atoms: _455  and  _456
REMARK  190  A    between atoms: _461  and  _463
REMARK  191  A    between atoms: _463  and  _464
REMARK  192  A    between atoms: _463  and  _466
REMARK  193  A    between atoms: _466  and  _467
REMARK  194  A    between atoms: _469  and  _471
REMARK  195  A    between atoms: _471  and  _472
REMARK  196  A    between atoms: _471  and  _474
REMARK  197  A    between atoms: _474  and  _475
REMARK  198  A    between atoms: _480  and  _482
REMARK  199  A    between atoms: _482  and  _483
REMARK  200  A    between atoms: _482  and  _485
REMARK  201  A    between atoms: _485  and  _486
REMARK  202  A    between atoms: _489  and  _491
REMARK  203  A    between atoms: _491  and  _492
REMARK  204  A    between atoms: _495  and  _497
REMARK  205  A    between atoms: _497  and  _498
REMARK  206  A    between atoms: _497  and  _500
REMARK  207  A    between atoms: _503  and  _505
REMARK  208  A    between atoms: _505  and  _506
REMARK  209  A    between atoms: _505  and  _508
REMARK  210  A    between atoms: _508  and  _509
REMARK  211  A    between atoms: _509  and  _510
REMARK  212  A    between atoms: _510  and  _511
REMARK  213  A    between atoms: _511  and  _512
REMARK  214  A    between atoms: _516  and  _518
REMARK  215  A    between atoms: _518  and  _519
REMARK  216  A    between atoms: _518  and  _521
REMARK  217  A    between atoms: _521  and  _522
REMARK  218  A    between atoms: _525  and  _527
REMARK  219  A    between atoms: _527  and  _528
REMARK  220  A    between atoms: _527  and  _530
REMARK  221  A    between atoms: _530  and  _531
REMARK  222  A    between atoms: _534  and  _536
REMARK  223  A    between atoms: _536  and  _537
REMARK  224  A    between atoms: _536  and  _539
REMARK  225  A    between atoms: _539  and  _540
REMARK  226  A    between atoms: _543  and  _545
REMARK  227  A    between atoms: _545  and  _546
REMARK  228  A    between atoms: _545  and  _548
REMARK  229  A    between atoms: _548  and  _549
REMARK  230  A    between atoms: _555  and  _557
REMARK  231  A    between atoms: _557  and  _558
REMARK  232  A    between atoms: _560  and  _562
REMARK  233  A    between atoms: _562  and  _563
REMARK  234  A    between atoms: _562  and  _565
REMARK  235  A    between atoms: _565  and  _566
REMARK                            x       y       z     vdW  Elec       q    Type
REMARK                         _______ _______ _______ _____ _____    ______ ____
ROOT
ATOM      1  CG  TRP A   1      37.790  31.775  17.999  0.00  0.00    -0.002 A 
ATOM      2  CD2 TRP A   1      38.086  31.814  19.414  0.00  0.00    +0.013 A 
ATOM      3  CE3 TRP A   1      37.677  32.632  20.475  0.00  0.00    +0.001 A 
ATOM      4  CZ3 TRP A   1      38.174  32.371  21.741  0.00  0.00    +0.000 A 
ATOM      5  CH2 TRP A   1      39.078  31.310  21.969  0.00  0.00    +0.001 A 
ATOM      6  CZ2 TRP A   1      39.492  30.495  20.954  0.00  0.00    +0.017 A 
ATOM      7  CE2 TRP A   1      38.988  30.754  19.679  0.00  0.00    +0.056 A 
ATOM      8  NE1 TRP A   1      39.224  30.116  18.493  0.00  0.00    -0.352 N 
ATOM      9  HE1 TRP A   1      39.841  29.288  18.368  0.00  0.00    +0.166 HD
ATOM     10  CD1 TRP A   1      38.517  30.740  17.489  0.00  0.00    +0.068 A 
ENDROOT
BRANCH   1  11
ATOM     11  CB  TRP A   1      36.886  32.685  17.234  0.00  0.00    +0.053 C 
BRANCH  11  12
ATOM     12  CA  TRP A   1      35.763  31.928  16.519  0.00  0.00    +0.137 C 
BRANCH  12  13
ATOM     13  N   TRP A   1      36.266  31.210  15.349  0.00  0.00    -0.239 NA
ATOM     14  H   TRP A   1      37.030  31.632  14.784  0.00  0.00    +0.142 HD
ENDBRANCH  12  13
BRANCH  12  15
ATOM     15  C   TRP A   1      34.663  32.886  16.094  0.00  0.00    +0.224 C 
ATOM     16  O   TRP A   1      34.853  33.693  15.192  0.00  0.00    -0.287 OA
ENDBRANCH  12  15
ENDBRANCH  11  12
ENDBRANCH   1  11
TORSDOF 4
REMARK  Name = ../refined-set-2016/2zb1/2zb1_pocket.pdb
REMARK  235 active torsions:
REMARK  status: ('A' for Active; 'I' for Inactive)
REMARK    1  A    between atoms: _1  and  _3
REMARK    2  A    between atoms: _3  and  _4
REMARK    3  A    between atoms: _3  and  _6
REMARK    4  A    between atoms: _6  and  _7
REMARK    5  A    between atoms: _17  and  _19
REMARK    6  A    between atoms: _19  and  _20
REMARK    7  A    between atoms: _19  and  _22
REMARK    8  A    between atoms: _25  and  _27
REMARK    9  A    between atoms: _27  and  _28
REMARK   10  A    between atoms: _31  and  _33
REMARK   11  A    between atoms: _33  and  _34
REMARK   12  A    between atoms: _33  and  _36
REMARK   13  A    between atoms: _36  and  _37
REMARK   14  A    between atoms: _42  and  _43
REMARK   15  A    between atoms: _45  and  _47
REMARK   16  A    between atoms: _47  and  _48
REMARK   17  A    between atoms: _50  and  _52
REMARK   18  A    between atoms: _52  and  _53
REMARK   19  A    between atoms: _52  and  _55
REMARK   20  A    between atoms: _55  and  _56
REMARK   21  A    between atoms: _58  and  _60
REMARK   22  A    between atoms: _60  and  _61
REMARK   23  A    between atoms: _60  and  _63
REMARK   24  A    between atoms: _66  and  _68
REMARK   25  A    between atoms: _68  and  _69
REMARK   26  A    between atoms: _68  and  _71
REMARK   27  A    between atoms: _73  and  _75
REMARK   28  A    between atoms: _75  and  _76
REMARK   29  A    between atoms: _79  and  _81
REMARK   30  A    between atoms: _81  and  _82
REMARK   31  A    between atoms: _81  and  _84
REMARK   32  A    between atoms: _84  and  _85
REMARK   33  A    between atoms: _85  and  _86
REMARK   34  A    between atoms: _86  and  _87
REMARK   35  A    between atoms: _96  and  _98
REMARK   36  A    between atoms: _98  and  _99
REMARK   37  A    between atoms: _98  and  _101
REMARK   38  A    between atoms: _104  and  _106
REMARK   39  A    between atoms: _106  and  _107
REMARK   40  A    between atoms: _110  and  _112
REMARK   41  A    between atoms: _112  and  _113
REMARK   42  A    between atoms: _112  and  _115
REMARK   43  A    between atoms: _118  and  _120
REMARK   44  A    between atoms: _120  and  _121
REMARK   45  A    between atoms: _120  and  _123
REMARK   46  A    between atoms: _123  and  _124
REMARK   47  A    between atoms: _124  and  _125
REMARK   48  A    between atoms: _125  and  _126
REMARK   49  A    between atoms: _126  and  _127
REMARK   50  A    between atoms: _131  and  _133
REMARK   51  A    between atoms: _133  and  _134
REMARK   52  A    between atoms: _133  and  _136
REMARK   53  A    between atoms: _136  and  _137
REMARK   54  A    between atoms: _137  and  _138
REMARK   55  A    between atoms: _138  and  _139
REMARK   56  A    between atoms: _139  and  _140
REMARK   57  A    between atoms: _144  and  _146
REMARK   58  A    between atoms: _146  and  _147
REMARK   59  A    between atoms: _146  and  _149
REMARK   60  A    between atoms: _149  and  _150
REMARK   61  A    between atoms: _153  and  _155
REMARK   62  A    between atoms: _155  and  _156
REMARK   63  A    between atoms: _155  and  _158
REMARK   64  A    between atoms: _158  and  _159
REMARK   65  A    between atoms: _159  and  _160
REMARK   66  A    between atoms: _160  and  _161
REMARK   67  A    between atoms: _170  and  _172
REMARK   68  A    between atoms: _172  and  _173
REMARK   69  A    between atoms: _172  and  _175
REMARK   70  A    between atoms: _175  and  _176
REMARK   71  A    between atoms: _176  and  _177
REMARK   72  A    between atoms: _177  and  _178
REMARK   73  A    between atoms: _187  and  _189
REMARK   74  A    between atoms: _189  and  _190
REMARK   75  A    between atoms: _189  and  _192
REMARK   76  A    between atoms: _192  and  _193
REMARK   77  A    between atoms: _193  and  _194
REMARK   78  A    between atoms: _197  and  _199
REMARK   79  A    between atoms: _199  and  _200
REMARK   80  A    between atoms: _199  and  _202
REMARK   81  A    between atoms: _202  and  _203
REMARK   82  A    between atoms: _206  and  _208
REMARK   83  A    between atoms: _208  and  _209
REMARK   84  A    between atoms: _208  and  _211
REMARK   85  A    between atoms: _211  and  _212
REMARK   86  A    between atoms: _212  and  _213
REMARK   87  A    between atoms: _213  and  _214
REMARK   88  A    between atoms: _223  and  _225
REMARK   89  A    between atoms: _225  and  _226
REMARK   90  A    between atoms: _225  and  _228
REMARK   91  A    between atoms: _228  and  _229
REMARK   92  A    between atoms: _232  and  _234
REMARK   93  A    between atoms: _234  and  _235
REMARK   94  A    between atoms: _234  and  _237
REMARK   95  A    between atoms: _237  and  _238
REMARK   96  A    between atoms: _241  and  _243
REMARK   97  A    between atoms: _243  and  _244
REMARK   98  A    between atoms: _243  and  _246
REMARK   99  A    between atoms: _246  and  _247
REMARK  100  A    between atoms: _247  and  _248
REMARK  101  A    between atoms: _248  and  _249
REMARK  102  A    between atoms: _249  and  _250
REMARK  103  A    between atoms: _254  and  _256
REMARK  104  A    between atoms: _256  and  _257
REMARK  105  A    between atoms: _256  and  _259
REMARK  106  A    between atoms: _259  and  _260
REMARK  107  A    between atoms: _260  and  _261
REMARK  108  A    between atoms: _263  and  _265
REMARK  109  A    between atoms: _265  and  _266
REMARK  110  A    between atoms: _265  and  _268
REMARK  111  A    between atoms: _271  and  _273
REMARK  112  A    between atoms: _273  and  _274
REMARK  113  A    between atoms: _273  and  _276
REMARK  114  A    between atoms: _276  and  _277
REMARK  115  A    between atoms: _280  and  _282
REMARK  116  A    between atoms: _282  and  _283
REMARK  117  A    between atoms: _285  and  _287
REMARK  118  A    between atoms: _287  and  _288
REMARK  119  A    between atoms: _287  and  _290
REMARK  120  A    between atoms: _290  and  _291
REMARK  121  A    between atoms: _294  and  _296
REMARK  122  A    between atoms: _296  and  _297
REMARK  123  A    between atoms: _296  and  _299
REMARK  124  A    between atoms: _299  and  _300
REMARK  125  A    between atoms: _303  and  _305
REMARK  126  A    between atoms: _305  and  _306
REMARK  127  A    between atoms: _305  and  _308
REMARK  128  A    between atoms: _308  and  _309
REMARK  129  A    between atoms: _312  and  _314
REMARK  130  A    between atoms: _314  and  _315
REMARK  131  A    between atoms: _314  and  _317
REMARK  132  A    between atoms: _317  and  _318
REMARK  133  A    between atoms: _323  and  _324
REMARK  134  A    between atoms: _326  and  _328
REMARK  135  A    between atoms: _328  and  _329
REMARK  136  A    between atoms: _328  and  _331
REMARK  137  A    between atoms: _331  and  _332
REMARK  138  A    between atoms: _335  and  _337
REMARK  139  A    between atoms: _337  and  _338
REMARK  140  A    between atoms: _337  and  _340
REMARK  141  A    between atoms: _343  and  _345
REMARK  142  A    between atoms: _345  and  _346
REMARK  143  A    between atoms: _345  and  _348
REMARK  144  A    between atoms: _348  and  _349
REMARK  145  A    between atoms: _352  and  _354
REMARK  146  A    between atoms: _354  and  _355
REMARK  147  A    between atoms: _354  and  _357
REMARK  148  A    between atoms: _357  and  _358
REMARK  149  A    between atoms: _363  and  _365
REMARK  150  A    between atoms: _365  and  _366
REMARK  151  A    between atoms: _365  and  _368
REMARK  152  A    between atoms: _368  and  _369
REMARK  153  A    between atoms: _372  and  _374
REMARK  154  A    between atoms: _374  and  _375
REMARK  155  A    between atoms: _374  and  _377
REMARK  156  A    between atoms: _377  and  _378
REMARK  157  A    between atoms: _378  and  _379
REMARK  158  A    between atoms: _381  and  _383
REMARK  159  A    between atoms: _383  and  _384
REMARK  160  A    between atoms: _386  and  _388
REMARK  161  A    between atoms: _388  and  _389
REMARK  162  A    between atoms: _392  and  _394
REMARK  163  A    between atoms: _394  and  _395
REMARK  164  A    between atoms: _394  and  _397
REMARK  165  A    between atoms: _397  and  _398
REMARK  166  A    between atoms: _401  and  _403
REMARK  167  A    between atoms: _403  and  _404
REMARK  168  A    between atoms: _403  and  _406
REMARK  169  A    between atoms: _406  and  _407
REMARK  170  A    between atoms: _410  and  _412
REMARK  171  A    between atoms: _412  and  _413
REMARK  172  A    between atoms: _412  and  _415
REMARK  173  A    between atoms: _415  and  _416
REMARK  174  A    between atoms: _421  and  _423
REMARK  175  A    between atoms: _423  and  _424
REMARK  176  A    between atoms: _423  and  _426
REMARK  177  A    between atoms: _426  and  _427
REMARK  178  A    between atoms: _432  and  _434
REMARK  179  A    between atoms: _434  and  _435
REMARK  180  A    between atoms: _434  and  _437
REMARK  181  A    between atoms: _437  and  _438
REMARK  182  A    between atoms: _441  and  _443
REMARK  183  A    between atoms: _443  and  _444
REMARK  184  A    between atoms: _443  and  _446
REMARK  185  A    between atoms: _446  and  _447
REMARK  186  A    between atoms: _450  and  _452
REMARK  187  A    between atoms: _452  and  _453
REMARK  188  A    between atoms: _452  and  _455
REMARK  189  A    between atoms: _455  and  _456
REMARK  190  A    between atoms: _461  and  _463
REMARK  191  A    between atoms: _463  and  _464
REMARK  192  A    between atoms: _463  and  _466
REMARK  193  A    between atoms: _466  and  _467
REMARK  194  A    between atoms: _469  and  _471
REMARK  195  A    between atoms: _471  and  _472
REMARK  196  A    between atoms: _471  and  _474
REMARK  197  A    between atoms: _474  and  _475
REMARK  198  A    between atoms: _480  and  _482
REMARK  199  A    between atoms: _482  and  _483
REMARK  200  A    between atoms: _482  and  _485
REMARK  201  A    between atoms: _485  and  _486
REMARK  202  A    between atoms: _489  and  _491
REMARK  203  A    between atoms: _491  and  _492
REMARK  204  A    between atoms: _495  and  _497
REMARK  205  A    between atoms: _497  and  _498
REMARK  206  A    between atoms: _497  and  _500
REMARK  207  A    between atoms: _503  and  _505
REMARK  208  A    between atoms: _505  and  _506
REMARK  209  A    between atoms: _505  and  _508
REMARK  210  A    between atoms: _508  and  _509
REMARK  211  A    between atoms: _509  and  _510
REMARK  212  A    between atoms: _510  and  _511
REMARK  213  A    between atoms: _511  and  _512
REMARK  214  A    between atoms: _516  and  _518
REMARK  215  A    between atoms: _518  and  _519
REMARK  216  A    between atoms: _518  and  _521
REMARK  217  A    between atoms: _521  and  _522
REMARK  218  A    between atoms: _525  and  _527
REMARK  219  A    between atoms: _527  and  _528
REMARK  220  A    between atoms: _527  and  _530
REMARK  221  A    between atoms: _530  and  _531
REMARK  222  A    between atoms: _534  and  _536
REMARK  223  A    between atoms: _536  and  _537
REMARK  224  A    between atoms: _536  and  _539
REMARK  225  A    between atoms: _539  and  _540
REMARK  226  A    between atoms: _543  and  _545
REMARK  227  A    between atoms: _545  and  _546
REMARK  228  A    between atoms: _545  and  _548
REMARK  229  A    between atoms: _548  and  _549
REMARK  230  A    between atoms: _555  and  _557
REMARK  231  A    between atoms: _557  and  _558
REMARK  232  A    between atoms: _560  and  _562
REMARK  233  A    between atoms: _562  and  _563
REMARK  234  A    between atoms: _562  and  _565
REMARK  235  A    between atoms: _565  and  _566
REMARK                            x       y       z     vdW  Elec       q    Type
REMARK                         _______ _______ _______ _____ _____    ______ ____
ROOT
ATOM      1  CA  VAL A   1      47.907  32.655  23.993  0.00  0.00    +0.133 C 
ENDROOT
BRANCH   1   2
ATOM      2  CB  VAL A   1      47.480  33.439  25.280  0.00  0.00    +0.023 C 
ATOM      3  CG2 VAL A   1      46.046  33.130  25.679  0.00  0.00    +0.002 C 
ATOM      4  CG1 VAL A   1      47.700  34.948  25.103  0.00  0.00    +0.002 C 
ENDBRANCH   1   2
BRANCH   1   5
ATOM      5  N   VAL A   1      46.855  32.604  22.962  0.00  0.00    -0.239 NA
ATOM      6  H   VAL A   1      45.977  32.079  23.148  0.00  0.00    +0.142 HD
ENDBRANCH   1   5
BRANCH   1   7
ATOM      7  C   VAL A   1      48.490  31.277  24.339  0.00  0.00    +0.224 C 
ATOM      8  O   VAL A   1      47.817  30.442  24.953  0.00  0.00    -0.287 OA
ENDBRANCH   1   7
TORSDOF 3
REMARK  Name = ../refined-set-2016/2zb1/2zb1_pocket.pdb
REMARK  235 active torsions:
REMARK  status: ('A' for Active; 'I' for Inactive)
REMARK    1  A    between atoms: _1  and  _3
REMARK    2  A    between atoms: _3  and  _4
REMARK    3  A    between atoms: _3  and  _6
REMARK    4  A    between atoms: _6  and  _7
REMARK    5  A    between atoms: _17  and  _19
REMARK    6  A    between atoms: _19  and  _20
REMARK    7  A    between atoms: _19  and  _22
REMARK    8  A    between atoms: _25  and  _27
REMARK    9  A    between atoms: _27  and  _28
REMARK   10  A    between atoms: _31  and  _33
REMARK   11  A    between atoms: _33  and  _34
REMARK   12  A    between atoms: _33  and  _36
REMARK   13  A    between atoms: _36  and  _37
REMARK   14  A    between atoms: _42  and  _43
REMARK   15  A    between atoms: _45  and  _47
REMARK   16  A    between atoms: _47  and  _48
REMARK   17  A    between atoms: _50  and  _52
REMARK   18  A    between atoms: _52  and  _53
REMARK   19  A    between atoms: _52  and  _55
REMARK   20  A    between atoms: _55  and  _56
REMARK   21  A    between atoms: _58  and  _60
REMARK   22  A    between atoms: _60  and  _61
REMARK   23  A    between atoms: _60  and  _63
REMARK   24  A    between atoms: _66  and  _68
REMARK   25  A    between atoms: _68  and  _69
REMARK   26  A    between atoms: _68  and  _71
REMARK   27  A    between atoms: _73  and  _75
REMARK   28  A    between atoms: _75  and  _76
REMARK   29  A    between atoms: _79  and  _81
REMARK   30  A    between atoms: _81  and  _82
REMARK   31  A    between atoms: _81  and  _84
REMARK   32  A    between atoms: _84  and  _85
REMARK   33  A    between atoms: _85  and  _86
REMARK   34  A    between atoms: _86  and  _87
REMARK   35  A    between atoms: _96  and  _98
REMARK   36  A    between atoms: _98  and  _99
REMARK   37  A    between atoms: _98  and  _101
REMARK   38  A    between atoms: _104  and  _106
REMARK   39  A    between atoms: _106  and  _107
REMARK   40  A    between atoms: _110  and  _112
REMARK   41  A    between atoms: _112  and  _113
REMARK   42  A    between atoms: _112  and  _115
REMARK   43  A    between atoms: _118  and  _120
REMARK   44  A    between atoms: _120  and  _121
REMARK   45  A    between atoms: _120  and  _123
REMARK   46  A    between atoms: _123  and  _124
REMARK   47  A    between atoms: _124  and  _125
REMARK   48  A    between atoms: _125  and  _126
REMARK   49  A    between atoms: _126  and  _127
REMARK   50  A    between atoms: _131  and  _133
REMARK   51  A    between atoms: _133  and  _134
REMARK   52  A    between atoms: _133  and  _136
REMARK   53  A    between atoms: _136  and  _137
REMARK   54  A    between atoms: _137  and  _138
REMARK   55  A    between atoms: _138  and  _139
REMARK   56  A    between atoms: _139  and  _140
REMARK   57  A    between atoms: _144  and  _146
REMARK   58  A    between atoms: _146  and  _147
REMARK   59  A    between atoms: _146  and  _149
REMARK   60  A    between atoms: _149  and  _150
REMARK   61  A    between atoms: _153  and  _155
REMARK   62  A    between atoms: _155  and  _156
REMARK   63  A    between atoms: _155  and  _158
REMARK   64  A    between atoms: _158  and  _159
REMARK   65  A    between atoms: _159  and  _160
REMARK   66  A    between atoms: _160  and  _161
REMARK   67  A    between atoms: _170  and  _172
REMARK   68  A    between atoms: _172  and  _173
REMARK   69  A    between atoms: _172  and  _175
REMARK   70  A    between atoms: _175  and  _176
REMARK   71  A    between atoms: _176  and  _177
REMARK   72  A    between atoms: _177  and  _178
REMARK   73  A    between atoms: _187  and  _189
REMARK   74  A    between atoms: _189  and  _190
REMARK   75  A    between atoms: _189  and  _192
REMARK   76  A    between atoms: _192  and  _193
REMARK   77  A    between atoms: _193  and  _194
REMARK   78  A    between atoms: _197  and  _199
REMARK   79  A    between atoms: _199  and  _200
REMARK   80  A    between atoms: _199  and  _202
REMARK   81  A    between atoms: _202  and  _203
REMARK   82  A    between atoms: _206  and  _208
REMARK   83  A    between atoms: _208  and  _209
REMARK   84  A    between atoms: _208  and  _211
REMARK   85  A    between atoms: _211  and  _212
REMARK   86  A    between atoms: _212  and  _213
REMARK   87  A    between atoms: _213  and  _214
REMARK   88  A    between atoms: _223  and  _225
REMARK   89  A    between atoms: _225  and  _226
REMARK   90  A    between atoms: _225  and  _228
REMARK   91  A    between atoms: _228  and  _229
REMARK   92  A    between atoms: _232  and  _234
REMARK   93  A    between atoms: _234  and  _235
REMARK   94  A    between atoms: _234  and  _237
REMARK   95  A    between atoms: _237  and  _238
REMARK   96  A    between atoms: _241  and  _243
REMARK   97  A    between atoms: _243  and  _244
REMARK   98  A    between atoms: _243  and  _246
REMARK   99  A    between atoms: _246  and  _247
REMARK  100  A    between atoms: _247  and  _248
REMARK  101  A    between atoms: _248  and  _249
REMARK  102  A    between atoms: _249  and  _250
REMARK  103  A    between atoms: _254  and  _256
REMARK  104  A    between atoms: _256  and  _257
REMARK  105  A    between atoms: _256  and  _259
REMARK  106  A    between atoms: _259  and  _260
REMARK  107  A    between atoms: _260  and  _261
REMARK  108  A    between atoms: _263  and  _265
REMARK  109  A    between atoms: _265  and  _266
REMARK  110  A    between atoms: _265  and  _268
REMARK  111  A    between atoms: _271  and  _273
REMARK  112  A    between atoms: _273  and  _274
REMARK  113  A    between atoms: _273  and  _276
REMARK  114  A    between atoms: _276  and  _277
REMARK  115  A    between atoms: _280  and  _282
REMARK  116  A    between atoms: _282  and  _283
REMARK  117  A    between atoms: _285  and  _287
REMARK  118  A    between atoms: _287  and  _288
REMARK  119  A    between atoms: _287  and  _290
REMARK  120  A    between atoms: _290  and  _291
REMARK  121  A    between atoms: _294  and  _296
REMARK  122  A    between atoms: _296  and  _297
REMARK  123  A    between atoms: _296  and  _299
REMARK  124  A    between atoms: _299  and  _300
REMARK  125  A    between atoms: _303  and  _305
REMARK  126  A    between atoms: _305  and  _306
REMARK  127  A    between atoms: _305  and  _308
REMARK  128  A    between atoms: _308  and  _309
REMARK  129  A    between atoms: _312  and  _314
REMARK  130  A    between atoms: _314  and  _315
REMARK  131  A    between atoms: _314  and  _317
REMARK  132  A    between atoms: _317  and  _318
REMARK  133  A    between atoms: _323  and  _324
REMARK  134  A    between atoms: _326  and  _328
REMARK  135  A    between atoms: _328  and  _329
REMARK  136  A    between atoms: _328  and  _331
REMARK  137  A    between atoms: _331  and  _332
REMARK  138  A    between atoms: _335  and  _337
REMARK  139  A    between atoms: _337  and  _338
REMARK  140  A    between atoms: _337  and  _340
REMARK  141  A    between atoms: _343  and  _345
REMARK  142  A    between atoms: _345  and  _346
REMARK  143  A    between atoms: _345  and  _348
REMARK  144  A    between atoms: _348  and  _349
REMARK  145  A    between atoms: _352  and  _354
REMARK  146  A    between atoms: _354  and  _355
REMARK  147  A    between atoms: _354  and  _357
REMARK  148  A    between atoms: _357  and  _358
REMARK  149  A    between atoms: _363  and  _365
REMARK  150  A    between atoms: _365  and  _366
REMARK  151  A    between atoms: _365  and  _368
REMARK  152  A    between atoms: _368  and  _369
REMARK  153  A    between atoms: _372  and  _374
REMARK  154  A    between atoms: _374  and  _375
REMARK  155  A    between atoms: _374  and  _377
REMARK  156  A    between atoms: _377  and  _378
REMARK  157  A    between atoms: _378  and  _379
REMARK  158  A    between atoms: _381  and  _383
REMARK  159  A    between atoms: _383  and  _384
REMARK  160  A    between atoms: _386  and  _388
REMARK  161  A    between atoms: _388  and  _389
REMARK  162  A    between atoms: _392  and  _394
REMARK  163  A    between atoms: _394  and  _395
REMARK  164  A    between atoms: _394  and  _397
REMARK  165  A    between atoms: _397  and  _398
REMARK  166  A    between atoms: _401  and  _403
REMARK  167  A    between atoms: _403  and  _404
REMARK  168  A    between atoms: _403  and  _406
REMARK  169  A    between atoms: _406  and  _407
REMARK  170  A    between atoms: _410  and  _412
REMARK  171  A    between atoms: _412  and  _413
REMARK  172  A    between atoms: _412  and  _415
REMARK  173  A    between atoms: _415  and  _416
REMARK  174  A    between atoms: _421  and  _423
REMARK  175  A    between atoms: _423  and  _424
REMARK  176  A    between atoms: _423  and  _426
REMARK  177  A    between atoms: _426  and  _427
REMARK  178  A    between atoms: _432  and  _434
REMARK  179  A    between atoms: _434  and  _435
REMARK  180  A    between atoms: _434  and  _437
REMARK  181  A    between atoms: _437  and  _438
REMARK  182  A    between atoms: _441  and  _443
REMARK  183  A    between atoms: _443  and  _444
REMARK  184  A    between atoms: _443  and  _446
REMARK  185  A    between atoms: _446  and  _447
REMARK  186  A    between atoms: _450  and  _452
REMARK  187  A    between atoms: _452  and  _453
REMARK  188  A    between atoms: _452  and  _455
REMARK  189  A    between atoms: _455  and  _456
REMARK  190  A    between atoms: _461  and  _463
REMARK  191  A    between atoms: _463  and  _464
REMARK  192  A    between atoms: _463  and  _466
REMARK  193  A    between atoms: _466  and  _467
REMARK  194  A    between atoms: _469  and  _471
REMARK  195  A    between atoms: _471  and  _472
REMARK  196  A    between atoms: _471  and  _474
REMARK  197  A    between atoms: _474  and  _475
REMARK  198  A    between atoms: _480  and  _482
REMARK  199  A    between atoms: _482  and  _483
REMARK  200  A    between atoms: _482  and  _485
REMARK  201  A    between atoms: _485  and  _486
REMARK  202  A    between atoms: _489  and  _491
REMARK  203  A    between atoms: _491  and  _492
REMARK  204  A    between atoms: _495  and  _497
REMARK  205  A    between atoms: _497  and  _498
REMARK  206  A    between atoms: _497  and  _500
REMARK  207  A    between atoms: _503  and  _505
REMARK  208  A    between atoms: _505  and  _506
REMARK  209  A    between atoms: _505  and  _508
REMARK  210  A    between atoms: _508  and  _509
REMARK  211  A    between atoms: _509  and  _510
REMARK  212  A    between atoms: _510  and  _511
REMARK  213  A    between atoms: _511  and  _512
REMARK  214  A    between atoms: _516  and  _518
REMARK  215  A    between atoms: _518  and  _519
REMARK  216  A    between atoms: _518  and  _521
REMARK  217  A    between atoms: _521  and  _522
REMARK  218  A    between atoms: _525  and  _527
REMARK  219  A    between atoms: _527  and  _528
REMARK  220  A    between atoms: _527  and  _530
REMARK  221  A    between atoms: _530  and  _531
REMARK  222  A    between atoms: _534  and  _536
REMARK  223  A    between atoms: _536  and  _537
REMARK  224  A    between atoms: _536  and  _539
REMARK  225  A    between atoms: _539  and  _540
REMARK  226  A    between atoms: _543  and  _545
REMARK  227  A    between atoms: _545  and  _546
REMARK  228  A    between atoms: _545  and  _548
REMARK  229  A    between atoms: _548  and  _549
REMARK  230  A    between atoms: _555  and  _557
REMARK  231  A    between atoms: _557  and  _558
REMARK  232  A    between atoms: _560  and  _562
REMARK  233  A    between atoms: _562  and  _563
REMARK  234  A    between atoms: _562  and  _565
REMARK  235  A    between atoms: _565  and  _566
REMARK                            x       y       z     vdW  Elec       q    Type
REMARK                         _______ _______ _______ _____ _____    ______ ____
ROOT
ATOM      1  C   GLY A   3      42.879  25.838  25.145  0.00  0.00    +0.243 C 
ATOM      2  N   SER A   4      41.704  26.234  24.648  0.00  0.00    -0.295 N 
ATOM      3  H   SER A   4      40.827  25.979  25.144  0.00  0.00    +0.150 HD
ATOM      4  O   GLY A   3      43.965  26.005  24.550  0.00  0.00    -0.273 OA
ENDROOT
BRANCH   2   5
ATOM      5  CA  SER A   4      41.631  27.024  23.412  0.00  0.00    +0.178 C 
BRANCH   5   6
ATOM      6  C   SER A   4      41.305  28.468  23.805  0.00  0.00    +0.243 C 
ATOM      7  O   SER A   4      40.135  28.842  23.979  0.00  0.00    -0.273 OA
ATOM      8  N   VAL A   5      42.357  29.265  23.966  0.00  0.00    -0.297 N 
ATOM      9  H   VAL A   5      43.294  28.933  23.659  0.00  0.00    +0.150 HD
BRANCH   8  10
ATOM     10  CA  VAL A   5      42.236  30.592  24.561  0.00  0.00    +0.149 C 
BRANCH  10  11
ATOM     11  C   VAL A   5      42.853  31.717  23.719  0.00  0.00    +0.241 C 
ATOM     12  N   CYS A   6      42.143  32.838  23.674  0.00  0.00    -0.296 N 
ATOM     13  H   CYS A   6      41.207  32.860  24.128  0.00  0.00    +0.150 HD
ATOM     14  O   VAL A   5      43.942  31.576  23.141  0.00  0.00    -0.273 OA
BRANCH  12  15
ATOM     15  CA  CYS A   6      42.629  34.027  23.015  0.00  0.00    +0.160 C 
BRANCH  15  16
ATOM     16  C   CYS A   6      42.694  35.198  23.978  0.00  0.00    +0.242 C 
ATOM     17  O   CYS A   6      41.878  35.308  24.907  0.00  0.00    -0.273 OA
ATOM     18  N   ALA A   7      43.687  36.054  23.775  0.00  0.00    -0.298 N 
ATOM     19  H   ALA A   7      44.452  35.800  23.118  0.00  0.00    +0.150 HD
BRANCH  18  20
ATOM     20  CA  ALA A   7      43.726  37.335  24.450  0.00  0.00    +0.137 C 
ATOM     21  CB  ALA A   7      45.129  37.918  24.417  0.00  0.00    +0.030 C 
BRANCH  20  22
ATOM     22  C   ALA A   7      42.778  38.190  23.628  0.00  0.00    +0.227 C 
ATOM     23  O   ALA A   7      42.629  37.940  22.433  0.00  0.00    -0.286 OA
ENDBRANCH  20  22
ENDBRANCH  18  20
ENDBRANCH  15  16
BRANCH  15  24
ATOM     24  CB  CYS A   6      41.716  34.394  21.858  0.00  0.00    +0.098 C 
ATOM     25  SG  CYS A   6      41.951  33.390  20.396  0.00  0.00    -0.080 S 
ENDBRANCH  15  24
ENDBRANCH  12  15
ENDBRANCH  10  11
BRANCH  10  26
ATOM     26  CB  VAL A   5      42.886  30.619  25.987  0.00  0.00    +0.027 C 
ATOM     27  CG2 VAL A   5      42.331  29.497  26.878  0.00  0.00    +0.002 C 
ATOM     28  CG1 VAL A   5      42.701  31.977  26.661  0.00  0.00    +0.002 C 
ENDBRANCH  10  26
ENDBRANCH   8  10
ENDBRANCH   5   6
BRANCH   5  29
ATOM     29  CB  SER A   4      40.612  26.447  22.428  0.00  0.00    +0.166 C 
BRANCH  29  30
ATOM     30  OG  SER A   4      40.869  26.946  21.120  0.00  0.00    -0.380 OA
ATOM     31  H   SER A   4      40.207  26.569  20.488  0.00  0.00    +0.211 HD
ENDBRANCH  29  30
ENDBRANCH   5  29
ENDBRANCH   2   5
BRANCH   1  32
ATOM     32  CA  GLY A   3      42.842  25.138  26.495  0.00  0.00    +0.176 C 
BRANCH  32  35
ATOM     33  C   TYR A   2      43.859  26.157  28.497  0.00  0.00    +0.241 C 
ATOM     34  O   TYR A   2      42.770  26.305  29.065  0.00  0.00    -0.273 OA
ATOM     35  N   GLY A   3      43.986  25.570  27.306  0.00  0.00    -0.295 N 
ATOM     36  H   GLY A   3      44.944  25.411  26.934  0.00  0.00    +0.150 HD
BRANCH  33  37
ATOM     37  CA  TYR A   2      45.169  26.625  29.165  0.00  0.00    +0.153 C 
BRANCH  37  40
ATOM     38  C   ALA A   1      47.045  25.351  28.193  0.00  0.00    +0.238 C 
ATOM     39  O   ALA A   1      46.681  24.304  28.735  0.00  0.00    -0.274 OA
ATOM     40  N   TYR A   2      46.368  26.494  28.306  0.00  0.00    -0.297 N 
ATOM     41  H   TYR A   2      46.694  27.324  27.771  0.00  0.00    +0.150 HD
BRANCH  38  42
ATOM     42  CA  ALA A   1      48.323  25.378  27.337  0.00  0.00    +0.145 C 
ATOM     43  CB  ALA A   1      49.493  25.958  28.142  0.00  0.00    +0.028 C 
BRANCH  42  44
ATOM     44  N   ALA A   1      48.223  26.051  26.028  0.00  0.00    -0.238 NA
ATOM     45  H   ALA A   1      48.835  26.874  25.855  0.00  0.00    +0.142 HD
ENDBRANCH  42  44
ENDBRANCH  38  42
ENDBRANCH  37  40
BRANCH  37  46
ATOM     46  CB  TYR A   2      45.042  28.075  29.692  0.00  0.00    +0.055 C 
BRANCH  46  47
ATOM     47  CG  TYR A   2      46.270  28.552  30.458  0.00  0.00    -0.020 A 
ATOM     48  CD2 TYR A   2      46.448  28.220  31.809  0.00  0.00    -0.001 A 
ATOM     49  CE2 TYR A   2      47.575  28.640  32.516  0.00  0.00    +0.036 A 
ATOM     50  CZ  TYR A   2      48.541  29.399  31.872  0.00  0.00    +0.134 A 
ATOM     51  CE1 TYR A   2      48.389  29.739  30.530  0.00  0.00    +0.036 A 
ATOM     52  CD1 TYR A   2      47.258  29.318  29.832  0.00  0.00    -0.001 A 
BRANCH  50  53
ATOM     53  OH  TYR A   2      49.658  29.810  32.571  0.00  0.00    -0.506 OA
ATOM     54  HH  TYR A   2      49.602  29.482  33.503  0.00  0.00    +0.292 HD
ENDBRANCH  50  53
ENDBRANCH  46  47
ENDBRANCH  37  46
ENDBRANCH  33  37
ENDBRANCH  32  35
ENDBRANCH   1  32
TORSDOF 21
REMARK  Name = ../refined-set-2016/2zb1/2zb1_pocket.pdb
REMARK  235 active torsions:
REMARK  status: ('A' for Active; 'I' for Inactive)
REMARK    1  A    between atoms: _1  and  _3
REMARK    2  A    between atoms: _3  and  _4
REMARK    3  A    between atoms: _3  and  _6
REMARK    4  A    between atoms: _6  and  _7
REMARK    5  A    between atoms: _17  and  _19
REMARK    6  A    between atoms: _19  and  _20
REMARK    7  A    between atoms: _19  and  _22
REMARK    8  A    between atoms: _25  and  _27
REMARK    9  A    between atoms: _27  and  _28
REMARK   10  A    between atoms: _31  and  _33
REMARK   11  A    between atoms: _33  and  _34
REMARK   12  A    between atoms: _33  and  _36
REMARK   13  A    between atoms: _36  and  _37
REMARK   14  A    between atoms: _42  and  _43
REMARK   15  A    between atoms: _45  and  _47
REMARK   16  A    between atoms: _47  and  _48
REMARK   17  A    between atoms: _50  and  _52
REMARK   18  A    between atoms: _52  and  _53
REMARK   19  A    between atoms: _52  and  _55
REMARK   20  A    between atoms: _55  and  _56
REMARK   21  A    between atoms: _58  and  _60
REMARK   22  A    between atoms: _60  and  _61
REMARK   23  A    between atoms: _60  and  _63
REMARK   24  A    between atoms: _66  and  _68
REMARK   25  A    between atoms: _68  and  _69
REMARK   26  A    between atoms: _68  and  _71
REMARK   27  A    between atoms: _73  and  _75
REMARK   28  A    between atoms: _75  and  _76
REMARK   29  A    between atoms: _79  and  _81
REMARK   30  A    between atoms: _81  and  _82
REMARK   31  A    between atoms: _81  and  _84
REMARK   32  A    between atoms: _84  and  _85
REMARK   33  A    between atoms: _85  and  _86
REMARK   34  A    between atoms: _86  and  _87
REMARK   35  A    between atoms: _96  and  _98
REMARK   36  A    between atoms: _98  and  _99
REMARK   37  A    between atoms: _98  and  _101
REMARK   38  A    between atoms: _104  and  _106
REMARK   39  A    between atoms: _106  and  _107
REMARK   40  A    between atoms: _110  and  _112
REMARK   41  A    between atoms: _112  and  _113
REMARK   42  A    between atoms: _112  and  _115
REMARK   43  A    between atoms: _118  and  _120
REMARK   44  A    between atoms: _120  and  _121
REMARK   45  A    between atoms: _120  and  _123
REMARK   46  A    between atoms: _123  and  _124
REMARK   47  A    between atoms: _124  and  _125
REMARK   48  A    between atoms: _125  and  _126
REMARK   49  A    between atoms: _126  and  _127
REMARK   50  A    between atoms: _131  and  _133
REMARK   51  A    between atoms: _133  and  _134
REMARK   52  A    between atoms: _133  and  _136
REMARK   53  A    between atoms: _136  and  _137
REMARK   54  A    between atoms: _137  and  _138
REMARK   55  A    between atoms: _138  and  _139
REMARK   56  A    between atoms: _139  and  _140
REMARK   57  A    between atoms: _144  and  _146
REMARK   58  A    between atoms: _146  and  _147
REMARK   59  A    between atoms: _146  and  _149
REMARK   60  A    between atoms: _149  and  _150
REMARK   61  A    between atoms: _153  and  _155
REMARK   62  A    between atoms: _155  and  _156
REMARK   63  A    between atoms: _155  and  _158
REMARK   64  A    between atoms: _158  and  _159
REMARK   65  A    between atoms: _159  and  _160
REMARK   66  A    between atoms: _160  and  _161
REMARK   67  A    between atoms: _170  and  _172
REMARK   68  A    between atoms: _172  and  _173
REMARK   69  A    between atoms: _172  and  _175
REMARK   70  A    between atoms: _175  and  _176
REMARK   71  A    between atoms: _176  and  _177
REMARK   72  A    between atoms: _177  and  _178
REMARK   73  A    between atoms: _187  and  _189
REMARK   74  A    between atoms: _189  and  _190
REMARK   75  A    between atoms: _189  and  _192
REMARK   76  A    between atoms: _192  and  _193
REMARK   77  A    between atoms: _193  and  _194
REMARK   78  A    between atoms: _197  and  _199
REMARK   79  A    between atoms: _199  and  _200
REMARK   80  A    between atoms: _199  and  _202
REMARK   81  A    between atoms: _202  and  _203
REMARK   82  A    between atoms: _206  and  _208
REMARK   83  A    between atoms: _208  and  _209
REMARK   84  A    between atoms: _208  and  _211
REMARK   85  A    between atoms: _211  and  _212
REMARK   86  A    between atoms: _212  and  _213
REMARK   87  A    between atoms: _213  and  _214
REMARK   88  A    between atoms: _223  and  _225
REMARK   89  A    between atoms: _225  and  _226
REMARK   90  A    between atoms: _225  and  _228
REMARK   91  A    between atoms: _228  and  _229
REMARK   92  A    between atoms: _232  and  _234
REMARK   93  A    between atoms: _234  and  _235
REMARK   94  A    between atoms: _234  and  _237
REMARK   95  A    between atoms: _237  and  _238
REMARK   96  A    between atoms: _241  and  _243
REMARK   97  A    between atoms: _243  and  _244
REMARK   98  A    between atoms: _243  and  _246
REMARK   99  A    between atoms: _246  and  _247
REMARK  100  A    between atoms: _247  and  _248
REMARK  101  A    between atoms: _248  and  _249
REMARK  102  A    between atoms: _249  and  _250
REMARK  103  A    between atoms: _254  and  _256
REMARK  104  A    between atoms: _256  and  _257
REMARK  105  A    between atoms: _256  and  _259
REMARK  106  A    between atoms: _259  and  _260
REMARK  107  A    between atoms: _260  and  _261
REMARK  108  A    between atoms: _263  and  _265
REMARK  109  A    between atoms: _265  and  _266
REMARK  110  A    between atoms: _265  and  _268
REMARK  111  A    between atoms: _271  and  _273
REMARK  112  A    between atoms: _273  and  _274
REMARK  113  A    between atoms: _273  and  _276
REMARK  114  A    between atoms: _276  and  _277
REMARK  115  A    between atoms: _280  and  _282
REMARK  116  A    between atoms: _282  and  _283
REMARK  117  A    between atoms: _285  and  _287
REMARK  118  A    between atoms: _287  and  _288
REMARK  119  A    between atoms: _287  and  _290
REMARK  120  A    between atoms: _290  and  _291
REMARK  121  A    between atoms: _294  and  _296
REMARK  122  A    between atoms: _296  and  _297
REMARK  123  A    between atoms: _296  and  _299
REMARK  124  A    between atoms: _299  and  _300
REMARK  125  A    between atoms: _303  and  _305
REMARK  126  A    between atoms: _305  and  _306
REMARK  127  A    between atoms: _305  and  _308
REMARK  128  A    between atoms: _308  and  _309
REMARK  129  A    between atoms: _312  and  _314
REMARK  130  A    between atoms: _314  and  _315
REMARK  131  A    between atoms: _314  and  _317
REMARK  132  A    between atoms: _317  and  _318
REMARK  133  A    between atoms: _323  and  _324
REMARK  134  A    between atoms: _326  and  _328
REMARK  135  A    between atoms: _328  and  _329
REMARK  136  A    between atoms: _328  and  _331
REMARK  137  A    between atoms: _331  and  _332
REMARK  138  A    between atoms: _335  and  _337
REMARK  139  A    between atoms: _337  and  _338
REMARK  140  A    between atoms: _337  and  _340
REMARK  141  A    between atoms: _343  and  _345
REMARK  142  A    between atoms: _345  and  _346
REMARK  143  A    between atoms: _345  and  _348
REMARK  144  A    between atoms: _348  and  _349
REMARK  145  A    between atoms: _352  and  _354
REMARK  146  A    between atoms: _354  and  _355
REMARK  147  A    between atoms: _354  and  _357
REMARK  148  A    between atoms: _357  and  _358
REMARK  149  A    between atoms: _363  and  _365
REMARK  150  A    between atoms: _365  and  _366
REMARK  151  A    between atoms: _365  and  _368
REMARK  152  A    between atoms: _368  and  _369
REMARK  153  A    between atoms: _372  and  _374
REMARK  154  A    between atoms: _374  and  _375
REMARK  155  A    between atoms: _374  and  _377
REMARK  156  A    between atoms: _377  and  _378
REMARK  157  A    between atoms: _378  and  _379
REMARK  158  A    between atoms: _381  and  _383
REMARK  159  A    between atoms: _383  and  _384
REMARK  160  A    between atoms: _386  and  _388
REMARK  161  A    between atoms: _388  and  _389
REMARK  162  A    between atoms: _392  and  _394
REMARK  163  A    between atoms: _394  and  _395
REMARK  164  A    between atoms: _394  and  _397
REMARK  165  A    between atoms: _397  and  _398
REMARK  166  A    between atoms: _401  and  _403
REMARK  167  A    between atoms: _403  and  _404
REMARK  168  A    between atoms: _403  and  _406
REMARK  169  A    between atoms: _406  and  _407
REMARK  170  A    between atoms: _410  and  _412
REMARK  171  A    between atoms: _412  and  _413
REMARK  172  A    between atoms: _412  and  _415
REMARK  173  A    between atoms: _415  and  _416
REMARK  174  A    between atoms: _421  and  _423
REMARK  175  A    between atoms: _423  and  _424
REMARK  176  A    between atoms: _423  and  _426
REMARK  177  A    between atoms: _426  and  _427
REMARK  178  A    between atoms: _432  and  _434
REMARK  179  A    between atoms: _434  and  _435
REMARK  180  A    between atoms: _434  and  _437
REMARK  181  A    between atoms: _437  and  _438
REMARK  182  A    between atoms: _441  and  _443
REMARK  183  A    between atoms: _443  and  _444
REMARK  184  A    between atoms: _443  and  _446
REMARK  185  A    between atoms: _446  and  _447
REMARK  186  A    between atoms: _450  and  _452
REMARK  187  A    between atoms: _452  and  _453
REMARK  188  A    between atoms: _452  and  _455
REMARK  189  A    between atoms: _455  and  _456
REMARK  190  A    between atoms: _461  and  _463
REMARK  191  A    between atoms: _463  and  _464
REMARK  192  A    between atoms: _463  and  _466
REMARK  193  A    between atoms: _466  and  _467
REMARK  194  A    between atoms: _469  and  _471
REMARK  195  A    between atoms: _471  and  _472
REMARK  196  A    between atoms: _471  and  _474
REMARK  197  A    between atoms: _474  and  _475
REMARK  198  A    between atoms: _480  and  _482
REMARK  199  A    between atoms: _482  and  _483
REMARK  200  A    between atoms: _482  and  _485
REMARK  201  A    between atoms: _485  and  _486
REMARK  202  A    between atoms: _489  and  _491
REMARK  203  A    between atoms: _491  and  _492
REMARK  204  A    between atoms: _495  and  _497
REMARK  205  A    between atoms: _497  and  _498
REMARK  206  A    between atoms: _497  and  _500
REMARK  207  A    between atoms: _503  and  _505
REMARK  208  A    between atoms: _505  and  _506
REMARK  209  A    between atoms: _505  and  _508
REMARK  210  A    between atoms: _508  and  _509
REMARK  211  A    between atoms: _509  and  _510
REMARK  212  A    between atoms: _510  and  _511
REMARK  213  A    between atoms: _511  and  _512
REMARK  214  A    between atoms: _516  and  _518
REMARK  215  A    between atoms: _518  and  _519
REMARK  216  A    between atoms: _518  and  _521
REMARK  217  A    between atoms: _521  and  _522
REMARK  218  A    between atoms: _525  and  _527
REMARK  219  A    between atoms: _527  and  _528
REMARK  220  A    between atoms: _527  and  _530
REMARK  221  A    between atoms: _530  and  _531
REMARK  222  A    between atoms: _534  and  _536
REMARK  223  A    between atoms: _536  and  _537
REMARK  224  A    between atoms: _536  and  _539
REMARK  225  A    between atoms: _539  and  _540
REMARK  226  A    between atoms: _543  and  _545
REMARK  227  A    between atoms: _545  and  _546
REMARK  228  A    between atoms: _545  and  _548
REMARK  229  A    between atoms: _548  and  _549
REMARK  230  A    between atoms: _555  and  _557
REMARK  231  A    between atoms: _557  and  _558
REMARK  232  A    between atoms: _560  and  _562
REMARK  233  A    between atoms: _562  and  _563
REMARK  234  A    between atoms: _562  and  _565
REMARK  235  A    between atoms: _565  and  _566
REMARK                            x       y       z     vdW  Elec       q    Type
REMARK                         _______ _______ _______ _____ _____    ______ ____
ROOT
ATOM      1  CA  VAL A   4      38.359  34.237  25.808  0.00  0.00    +0.149 C 
ENDROOT
BRANCH   1   2
ATOM      2  C   VAL A   4      38.700  32.791  25.522  0.00  0.00    +0.241 C 
ATOM      3  N   LYS A   5      38.051  31.885  26.249  0.00  0.00    -0.297 N 
ATOM      4  H   LYS A   5      37.402  32.205  26.996  0.00  0.00    +0.150 HD
ATOM      5  O   VAL A   4      39.571  32.507  24.693  0.00  0.00    -0.273 OA
BRANCH   3   6
ATOM      6  CA  LYS A   5      38.226  30.462  26.025  0.00  0.00    +0.149 C 
BRANCH   6   7
ATOM      7  C   LYS A   5      36.974  29.903  25.342  0.00  0.00    +0.241 C 
ATOM      8  O   LYS A   5      35.860  30.037  25.855  0.00  0.00    -0.273 OA
ATOM      9  N   LYS A   6      37.171  29.301  24.178  0.00  0.00    -0.297 N 
ATOM     10  H   LYS A   6      38.121  29.332  23.756  0.00  0.00    +0.150 HD
BRANCH   9  11
ATOM     11  CA  LYS A   6      36.113  28.598  23.465  0.00  0.00    +0.149 C 
BRANCH  11  12
ATOM     12  C   LYS A   6      36.216  27.129  23.856  0.00  0.00    +0.241 C 
ATOM     13  N   LEU A   7      35.129  26.579  24.388  0.00  0.00    -0.298 N 
ATOM     14  H   LEU A   7      34.265  27.148  24.501  0.00  0.00    +0.150 HD
ATOM     15  O   LYS A   6      37.269  26.501  23.676  0.00  0.00    -0.273 OA
BRANCH  13  16
ATOM     16  CA  LEU A   7      35.138  25.191  24.813  0.00  0.00    +0.137 C 
BRANCH  16  17
ATOM     17  C   LEU A   7      35.259  24.231  23.643  0.00  0.00    +0.227 C 
ATOM     18  O   LEU A   7      34.793  24.506  22.530  0.00  0.00    -0.286 OA
ENDBRANCH  16  17
BRANCH  16  19
ATOM     19  CB  LEU A   7      33.978  24.867  25.752  0.00  0.00    +0.028 C 
BRANCH  19  20
ATOM     20  CG  LEU A   7      34.152  25.562  27.121  0.00  0.00    +0.002 C 
ATOM     21  CD2 LEU A   7      33.053  25.162  28.102  0.00  0.00    +0.000 C 
ATOM     22  CD1 LEU A   7      35.529  25.302  27.728  0.00  0.00    +0.000 C 
ENDBRANCH  19  20
ENDBRANCH  16  19
ENDBRANCH  13  16
ENDBRANCH  11  12
BRANCH  11  23
ATOM     23  CB  LYS A   6      36.297  28.750  21.951  0.00  0.00    +0.029 C 
BRANCH  23  24
ATOM     24  CG  LYS A   6      35.445  27.825  21.121  0.00  0.00    +0.000 C 
BRANCH  24  25
ATOM     25  CD  LYS A   6      35.659  28.037  19.642  0.00  0.00    -0.024 C 
BRANCH  25  26
ATOM     26  CE  LYS A   6      34.581  27.307  18.870  0.00  0.00    -0.086 C 
BRANCH  26  27
ATOM     27  NZ  LYS A   6      34.943  27.146  17.449  0.00  0.00    +0.380 N 
ATOM     28  HZ1 LYS A   6      35.825  26.600  17.377  0.00  0.00    -0.089 HD
ATOM     29  HZ2 LYS A   6      35.078  28.083  17.019  0.00  0.00    -0.089 HD
ATOM     30  HZ3 LYS A   6      34.180  26.642  16.953  0.00  0.00    -0.089 HD
ENDBRANCH  26  27
ENDBRANCH  25  26
ENDBRANCH  24  25
ENDBRANCH  23  24
ENDBRANCH  11  23
ENDBRANCH   9  11
ENDBRANCH   6   7
BRANCH   6  31
ATOM     31  CB  LYS A   5      38.477  29.718  27.338  0.00  0.00    +0.029 C 
BRANCH  31  32
ATOM     32  CG  LYS A   5      38.736  28.237  27.117  0.00  0.00    +0.000 C 
BRANCH  32  33
ATOM     33  CD  LYS A   5      38.311  27.378  28.285  0.00  0.00    -0.024 C 
BRANCH  33  34
ATOM     34  CE  LYS A   5      39.453  26.926  29.151  0.00  0.00    -0.086 C 
BRANCH  34  35
ATOM     35  NZ  LYS A   5      38.890  25.941  30.129  0.00  0.00    +0.380 N 
ATOM     36  HZ1 LYS A   5      39.650  25.600  30.752  0.00  0.00    -0.089 HD
ATOM     37  HZ2 LYS A   5      38.153  26.403  30.699  0.00  0.00    -0.089 HD
ATOM     38  HZ3 LYS A   5      38.477  25.138  29.612  0.00  0.00    -0.089 HD
ENDBRANCH  34  35
ENDBRANCH  33  34
ENDBRANCH  32  33
ENDBRANCH  31  32
ENDBRANCH   6  31
ENDBRANCH   3   6
ENDBRANCH   1   2
BRANCH   1  41
ATOM     39  C   ALA A   3      39.669  35.301  27.556  0.00  0.00    +0.241 C 
ATOM     40  O   ALA A   3      38.723  35.260  28.349  0.00  0.00    -0.273 OA
ATOM     41  N   VAL A   4      39.572  34.876  26.298  0.00  0.00    -0.297 N 
ATOM     42  H   VAL A   4      40.378  35.003  25.653  0.00  0.00    +0.150 HD
BRANCH  39  43
ATOM     43  CA  ALA A   3      41.012  35.936  27.961  0.00  0.00    +0.149 C 
ATOM     44  CB  ALA A   3      41.785  35.066  28.971  0.00  0.00    +0.031 C 
BRANCH  43  46
ATOM     45  C   VAL A   2      40.988  38.387  27.857  0.00  0.00    +0.241 C 
ATOM     46  N   ALA A   3      40.708  37.256  28.511  0.00  0.00    -0.297 N 
ATOM     47  H   ALA A   3      40.257  37.317  29.446  0.00  0.00    +0.150 HD
ATOM     48  O   VAL A   2      41.635  38.426  26.795  0.00  0.00    -0.273 OA
BRANCH  45  49
ATOM     49  CA  VAL A   2      40.468  39.668  28.517  0.00  0.00    +0.148 C 
BRANCH  49  52
ATOM     50  C   ARG A   1      41.725  41.691  28.984  0.00  0.00    +0.238 C 
ATOM     51  O   ARG A   1      41.787  41.442  30.202  0.00  0.00    -0.274 OA
ATOM     52  N   VAL A   2      41.143  40.888  28.101  0.00  0.00    -0.297 N 
ATOM     53  H   VAL A   2      41.170  41.136  27.091  0.00  0.00    +0.150 HD
BRANCH  50  54
ATOM     54  CA  ARG A   1      42.300  42.979  28.429  0.00  0.00    +0.145 C 
BRANCH  54  55
ATOM     55  N   ARG A   1      41.704  44.048  29.198  0.00  0.00    -0.238 NA
ATOM     56  H   ARG A   1      42.240  44.475  29.980  0.00  0.00    +0.142 HD
ENDBRANCH  54  55
BRANCH  54  57
ATOM     57  CB  ARG A   1      43.815  42.980  28.562  0.00  0.00    +0.030 C 
BRANCH  57  58
ATOM     58  CG  ARG A   1      44.479  43.865  27.533  0.00  0.00    +0.045 C 
BRANCH  58  59
ATOM     59  CD  ARG A   1      45.961  43.892  27.736  0.00  0.00    +0.174 C 
BRANCH  59  60
ATOM     60  NE  ARG A   1      46.357  44.918  28.700  0.00  0.00    -0.265 N 
ATOM     61  HE  ARG A   1      46.483  44.628  29.691  0.00  0.00    +0.259 HD
ATOM     62  CZ  ARG A   1      46.568  46.204  28.395  0.00  0.00    +0.342 C 
ATOM     63  NH2 ARG A   1      46.946  47.053  29.349  0.00  0.00    -0.292 N 
ATOM     64 HH21 ARG A   1      47.076  46.715  30.324  0.00  0.00    +0.255 HD
ATOM     65 HH22 ARG A   1      47.112  48.054  29.119  0.00  0.00    +0.255 HD
ATOM     66  NH1 ARG A   1      46.392  46.647  27.143  0.00  0.00    -0.292 N 
ATOM     67 HH11 ARG A   1      46.559  47.648  26.917  0.00  0.00    +0.255 HD
ATOM     68 HH12 ARG A   1      46.088  45.989  26.397  0.00  0.00    +0.255 HD
ENDBRANCH  59  60
ENDBRANCH  58  59
ENDBRANCH  57  58
ENDBRANCH  54  57
ENDBRANCH  50  54
ENDBRANCH  49  52
BRANCH  49  69
ATOM     69  CB  VAL A   2      38.921  39.749  28.310  0.00  0.00    +0.027 C 
ATOM     70  CG2 VAL A   2      38.292  40.712  29.293  0.00  0.00    +0.002 C 
ATOM     71  CG1 VAL A   2      38.552  40.111  26.879  0.00  0.00    +0.002 C 
ENDBRANCH  49  69
ENDBRANCH  45  49
ENDBRANCH  43  46
ENDBRANCH  39  43
ENDBRANCH   1  41
BRANCH   1  72
ATOM     72  CB  VAL A   4      37.764  34.886  24.524  0.00  0.00    +0.027 C 
ATOM     73  CG2 VAL A   4      37.831  36.400  24.573  0.00  0.00    +0.002 C 
ATOM     74  CG1 VAL A   4      36.303  34.423  24.326  0.00  0.00    +0.002 C 
ENDBRANCH   1  72
TORSDOF 32
REMARK  Name = ../refined-set-2016/2zb1/2zb1_pocket.pdb
REMARK  235 active torsions:
REMARK  status: ('A' for Active; 'I' for Inactive)
REMARK    1  A    between atoms: _1  and  _3
REMARK    2  A    between atoms: _3  and  _4
REMARK    3  A    between atoms: _3  and  _6
REMARK    4  A    between atoms: _6  and  _7
REMARK    5  A    between atoms: _17  and  _19
REMARK    6  A    between atoms: _19  and  _20
REMARK    7  A    between atoms: _19  and  _22
REMARK    8  A    between atoms: _25  and  _27
REMARK    9  A    between atoms: _27  and  _28
REMARK   10  A    between atoms: _31  and  _33
REMARK   11  A    between atoms: _33  and  _34
REMARK   12  A    between atoms: _33  and  _36
REMARK   13  A    between atoms: _36  and  _37
REMARK   14  A    between atoms: _42  and  _43
REMARK   15  A    between atoms: _45  and  _47
REMARK   16  A    between atoms: _47  and  _48
REMARK   17  A    between atoms: _50  and  _52
REMARK   18  A    between atoms: _52  and  _53
REMARK   19  A    between atoms: _52  and  _55
REMARK   20  A    between atoms: _55  and  _56
REMARK   21  A    between atoms: _58  and  _60
REMARK   22  A    between atoms: _60  and  _61
REMARK   23  A    between atoms: _60  and  _63
REMARK   24  A    between atoms: _66  and  _68
REMARK   25  A    between atoms: _68  and  _69
REMARK   26  A    between atoms: _68  and  _71
REMARK   27  A    between atoms: _73  and  _75
REMARK   28  A    between atoms: _75  and  _76
REMARK   29  A    between atoms: _79  and  _81
REMARK   30  A    between atoms: _81  and  _82
REMARK   31  A    between atoms: _81  and  _84
REMARK   32  A    between atoms: _84  and  _85
REMARK   33  A    between atoms: _85  and  _86
REMARK   34  A    between atoms: _86  and  _87
REMARK   35  A    between atoms: _96  and  _98
REMARK   36  A    between atoms: _98  and  _99
REMARK   37  A    between atoms: _98  and  _101
REMARK   38  A    between atoms: _104  and  _106
REMARK   39  A    between atoms: _106  and  _107
REMARK   40  A    between atoms: _110  and  _112
REMARK   41  A    between atoms: _112  and  _113
REMARK   42  A    between atoms: _112  and  _115
REMARK   43  A    between atoms: _118  and  _120
REMARK   44  A    between atoms: _120  and  _121
REMARK   45  A    between atoms: _120  and  _123
REMARK   46  A    between atoms: _123  and  _124
REMARK   47  A    between atoms: _124  and  _125
REMARK   48  A    between atoms: _125  and  _126
REMARK   49  A    between atoms: _126  and  _127
REMARK   50  A    between atoms: _131  and  _133
REMARK   51  A    between atoms: _133  and  _134
REMARK   52  A    between atoms: _133  and  _136
REMARK   53  A    between atoms: _136  and  _137
REMARK   54  A    between atoms: _137  and  _138
REMARK   55  A    between atoms: _138  and  _139
REMARK   56  A    between atoms: _139  and  _140
REMARK   57  A    between atoms: _144  and  _146
REMARK   58  A    between atoms: _146  and  _147
REMARK   59  A    between atoms: _146  and  _149
REMARK   60  A    between atoms: _149  and  _150
REMARK   61  A    between atoms: _153  and  _155
REMARK   62  A    between atoms: _155  and  _156
REMARK   63  A    between atoms: _155  and  _158
REMARK   64  A    between atoms: _158  and  _159
REMARK   65  A    between atoms: _159  and  _160
REMARK   66  A    between atoms: _160  and  _161
REMARK   67  A    between atoms: _170  and  _172
REMARK   68  A    between atoms: _172  and  _173
REMARK   69  A    between atoms: _172  and  _175
REMARK   70  A    between atoms: _175  and  _176
REMARK   71  A    between atoms: _176  and  _177
REMARK   72  A    between atoms: _177  and  _178
REMARK   73  A    between atoms: _187  and  _189
REMARK   74  A    between atoms: _189  and  _190
REMARK   75  A    between atoms: _189  and  _192
REMARK   76  A    between atoms: _192  and  _193
REMARK   77  A    between atoms: _193  and  _194
REMARK   78  A    between atoms: _197  and  _199
REMARK   79  A    between atoms: _199  and  _200
REMARK   80  A    between atoms: _199  and  _202
REMARK   81  A    between atoms: _202  and  _203
REMARK   82  A    between atoms: _206  and  _208
REMARK   83  A    between atoms: _208  and  _209
REMARK   84  A    between atoms: _208  and  _211
REMARK   85  A    between atoms: _211  and  _212
REMARK   86  A    between atoms: _212  and  _213
REMARK   87  A    between atoms: _213  and  _214
REMARK   88  A    between atoms: _223  and  _225
REMARK   89  A    between atoms: _225  and  _226
REMARK   90  A    between atoms: _225  and  _228
REMARK   91  A    between atoms: _228  and  _229
REMARK   92  A    between atoms: _232  and  _234
REMARK   93  A    between atoms: _234  and  _235
REMARK   94  A    between atoms: _234  and  _237
REMARK   95  A    between atoms: _237  and  _238
REMARK   96  A    between atoms: _241  and  _243
REMARK   97  A    between atoms: _243  and  _244
REMARK   98  A    between atoms: _243  and  _246
REMARK   99  A    between atoms: _246  and  _247
REMARK  100  A    between atoms: _247  and  _248
REMARK  101  A    between atoms: _248  and  _249
REMARK  102  A    between atoms: _249  and  _250
REMARK  103  A    between atoms: _254  and  _256
REMARK  104  A    between atoms: _256  and  _257
REMARK  105  A    between atoms: _256  and  _259
REMARK  106  A    between atoms: _259  and  _260
REMARK  107  A    between atoms: _260  and  _261
REMARK  108  A    between atoms: _263  and  _265
REMARK  109  A    between atoms: _265  and  _266
REMARK  110  A    between atoms: _265  and  _268
REMARK  111  A    between atoms: _271  and  _273
REMARK  112  A    between atoms: _273  and  _274
REMARK  113  A    between atoms: _273  and  _276
REMARK  114  A    between atoms: _276  and  _277
REMARK  115  A    between atoms: _280  and  _282
REMARK  116  A    between atoms: _282  and  _283
REMARK  117  A    between atoms: _285  and  _287
REMARK  118  A    between atoms: _287  and  _288
REMARK  119  A    between atoms: _287  and  _290
REMARK  120  A    between atoms: _290  and  _291
REMARK  121  A    between atoms: _294  and  _296
REMARK  122  A    between atoms: _296  and  _297
REMARK  123  A    between atoms: _296  and  _299
REMARK  124  A    between atoms: _299  and  _300
REMARK  125  A    between atoms: _303  and  _305
REMARK  126  A    between atoms: _305  and  _306
REMARK  127  A    between atoms: _305  and  _308
REMARK  128  A    between atoms: _308  and  _309
REMARK  129  A    between atoms: _312  and  _314
REMARK  130  A    between atoms: _314  and  _315
REMARK  131  A    between atoms: _314  and  _317
REMARK  132  A    between atoms: _317  and  _318
REMARK  133  A    between atoms: _323  and  _324
REMARK  134  A    between atoms: _326  and  _328
REMARK  135  A    between atoms: _328  and  _329
REMARK  136  A    between atoms: _328  and  _331
REMARK  137  A    between atoms: _331  and  _332
REMARK  138  A    between atoms: _335  and  _337
REMARK  139  A    between atoms: _337  and  _338
REMARK  140  A    between atoms: _337  and  _340
REMARK  141  A    between atoms: _343  and  _345
REMARK  142  A    between atoms: _345  and  _346
REMARK  143  A    between atoms: _345  and  _348
REMARK  144  A    between atoms: _348  and  _349
REMARK  145  A    between atoms: _352  and  _354
REMARK  146  A    between atoms: _354  and  _355
REMARK  147  A    between atoms: _354  and  _357
REMARK  148  A    between atoms: _357  and  _358
REMARK  149  A    between atoms: _363  and  _365
REMARK  150  A    between atoms: _365  and  _366
REMARK  151  A    between atoms: _365  and  _368
REMARK  152  A    between atoms: _368  and  _369
REMARK  153  A    between atoms: _372  and  _374
REMARK  154  A    between atoms: _374  and  _375
REMARK  155  A    between atoms: _374  and  _377
REMARK  156  A    between atoms: _377  and  _378
REMARK  157  A    between atoms: _378  and  _379
REMARK  158  A    between atoms: _381  and  _383
REMARK  159  A    between atoms: _383  and  _384
REMARK  160  A    between atoms: _386  and  _388
REMARK  161  A    between atoms: _388  and  _389
REMARK  162  A    between atoms: _392  and  _394
REMARK  163  A    between atoms: _394  and  _395
REMARK  164  A    between atoms: _394  and  _397
REMARK  165  A    between atoms: _397  and  _398
REMARK  166  A    between atoms: _401  and  _403
REMARK  167  A    between atoms: _403  and  _404
REMARK  168  A    between atoms: _403  and  _406
REMARK  169  A    between atoms: _406  and  _407
REMARK  170  A    between atoms: _410  and  _412
REMARK  171  A    between atoms: _412  and  _413
REMARK  172  A    between atoms: _412  and  _415
REMARK  173  A    between atoms: _415  and  _416
REMARK  174  A    between atoms: _421  and  _423
REMARK  175  A    between atoms: _423  and  _424
REMARK  176  A    between atoms: _423  and  _426
REMARK  177  A    between atoms: _426  and  _427
REMARK  178  A    between atoms: _432  and  _434
REMARK  179  A    between atoms: _434  and  _435
REMARK  180  A    between atoms: _434  and  _437
REMARK  181  A    between atoms: _437  and  _438
REMARK  182  A    between atoms: _441  and  _443
REMARK  183  A    between atoms: _443  and  _444
REMARK  184  A    between atoms: _443  and  _446
REMARK  185  A    between atoms: _446  and  _447
REMARK  186  A    between atoms: _450  and  _452
REMARK  187  A    between atoms: _452  and  _453
REMARK  188  A    between atoms: _452  and  _455
REMARK  189  A    between atoms: _455  and  _456
REMARK  190  A    between atoms: _461  and  _463
REMARK  191  A    between atoms: _463  and  _464
REMARK  192  A    between atoms: _463  and  _466
REMARK  193  A    between atoms: _466  and  _467
REMARK  194  A    between atoms: _469  and  _471
REMARK  195  A    between atoms: _471  and  _472
REMARK  196  A    between atoms: _471  and  _474
REMARK  197  A    between atoms: _474  and  _475
REMARK  198  A    between atoms: _480  and  _482
REMARK  199  A    between atoms: _482  and  _483
REMARK  200  A    between atoms: _482  and  _485
REMARK  201  A    between atoms: _485  and  _486
REMARK  202  A    between atoms: _489  and  _491
REMARK  203  A    between atoms: _491  and  _492
REMARK  204  A    between atoms: _495  and  _497
REMARK  205  A    between atoms: _497  and  _498
REMARK  206  A    between atoms: _497  and  _500
REMARK  207  A    between atoms: _503  and  _505
REMARK  208  A    between atoms: _505  and  _506
REMARK  209  A    between atoms: _505  and  _508
REMARK  210  A    between atoms: _508  and  _509
REMARK  211  A    between atoms: _509  and  _510
REMARK  212  A    between atoms: _510  and  _511
REMARK  213  A    between atoms: _511  and  _512
REMARK  214  A    between atoms: _516  and  _518
REMARK  215  A    between atoms: _518  and  _519
REMARK  216  A    between atoms: _518  and  _521
REMARK  217  A    between atoms: _521  and  _522
REMARK  218  A    between atoms: _525  and  _527
REMARK  219  A    between atoms: _527  and  _528
REMARK  220  A    between atoms: _527  and  _530
REMARK  221  A    between atoms: _530  and  _531
REMARK  222  A    between atoms: _534  and  _536
REMARK  223  A    between atoms: _536  and  _537
REMARK  224  A    between atoms: _536  and  _539
REMARK  225  A    between atoms: _539  and  _540
REMARK  226  A    between atoms: _543  and  _545
REMARK  227  A    between atoms: _545  and  _546
REMARK  228  A    between atoms: _545  and  _548
REMARK  229  A    between atoms: _548  and  _549
REMARK  230  A    between atoms: _555  and  _557
REMARK  231  A    between atoms: _557  and  _558
REMARK  232  A    between atoms: _560  and  _562
REMARK  233  A    between atoms: _562  and  _563
REMARK  234  A    between atoms: _562  and  _565
REMARK  235  A    between atoms: _565  and  _566
REMARK                            x       y       z     vdW  Elec       q    Type
REMARK                         _______ _______ _______ _____ _____    ______ ____
ROOT
ATOM      1  NE  ARG A   1      36.507  16.702  30.826  0.00  0.00    -0.265 N 
ATOM      2  CZ  ARG A   1      36.873  15.416  30.793  0.00  0.00    +0.342 C 
ATOM      3  NH2 ARG A   1      36.772  14.656  31.882  0.00  0.00    -0.292 N 
ATOM      4 HH21 ARG A   1      36.406  15.062  32.767  0.00  0.00    +0.255 HD
ATOM      5 HH22 ARG A   1      37.059  13.657  31.847  0.00  0.00    +0.255 HD
ATOM      6  NH1 ARG A   1      37.329  14.882  29.662  0.00  0.00    -0.292 N 
ATOM      7 HH11 ARG A   1      37.613  13.882  29.637  0.00  0.00    +0.255 HD
ATOM      8 HH12 ARG A   1      37.401  15.465  28.804  0.00  0.00    +0.255 HD
ATOM      9  HE  ARG A   1      36.577  17.248  29.944  0.00  0.00    +0.259 HD
ENDROOT
BRANCH   1  10
ATOM     10  CD  ARG A   1      36.014  17.394  32.019  0.00  0.00    +0.174 C 
BRANCH  10  11
ATOM     11  CG  ARG A   1      34.518  17.204  32.277  0.00  0.00    +0.045 C 
BRANCH  11  12
ATOM     12  CB  ARG A   1      33.704  18.265  31.595  0.00  0.00    +0.029 C 
BRANCH  12  13
ATOM     13  CA  ARG A   1      32.494  18.731  32.415  0.00  0.00    +0.133 C 
BRANCH  13  14
ATOM     14  N   ARG A   1      31.312  17.877  32.204  0.00  0.00    -0.239 NA
ATOM     15  H   ARG A   1      31.382  17.091  31.527  0.00  0.00    +0.142 HD
ENDBRANCH  13  14
BRANCH  13  16
ATOM     16  C   ARG A   1      32.214  20.199  32.107  0.00  0.00    +0.224 C 
ATOM     17  O   ARG A   1      32.550  21.077  32.900  0.00  0.00    -0.287 OA
ENDBRANCH  13  16
ENDBRANCH  12  13
ENDBRANCH  11  12
ENDBRANCH  10  11
ENDBRANCH   1  10
TORSDOF 6
REMARK  Name = ../refined-set-2016/2zb1/2zb1_pocket.pdb
REMARK  235 active torsions:
REMARK  status: ('A' for Active; 'I' for Inactive)
REMARK    1  A    between atoms: _1  and  _3
REMARK    2  A    between atoms: _3  and  _4
REMARK    3  A    between atoms: _3  and  _6
REMARK    4  A    between atoms: _6  and  _7
REMARK    5  A    between atoms: _17  and  _19
REMARK    6  A    between atoms: _19  and  _20
REMARK    7  A    between atoms: _19  and  _22
REMARK    8  A    between atoms: _25  and  _27
REMARK    9  A    between atoms: _27  and  _28
REMARK   10  A    between atoms: _31  and  _33
REMARK   11  A    between atoms: _33  and  _34
REMARK   12  A    between atoms: _33  and  _36
REMARK   13  A    between atoms: _36  and  _37
REMARK   14  A    between atoms: _42  and  _43
REMARK   15  A    between atoms: _45  and  _47
REMARK   16  A    between atoms: _47  and  _48
REMARK   17  A    between atoms: _50  and  _52
REMARK   18  A    between atoms: _52  and  _53
REMARK   19  A    between atoms: _52  and  _55
REMARK   20  A    between atoms: _55  and  _56
REMARK   21  A    between atoms: _58  and  _60
REMARK   22  A    between atoms: _60  and  _61
REMARK   23  A    between atoms: _60  and  _63
REMARK   24  A    between atoms: _66  and  _68
REMARK   25  A    between atoms: _68  and  _69
REMARK   26  A    between atoms: _68  and  _71
REMARK   27  A    between atoms: _73  and  _75
REMARK   28  A    between atoms: _75  and  _76
REMARK   29  A    between atoms: _79  and  _81
REMARK   30  A    between atoms: _81  and  _82
REMARK   31  A    between atoms: _81  and  _84
REMARK   32  A    between atoms: _84  and  _85
REMARK   33  A    between atoms: _85  and  _86
REMARK   34  A    between atoms: _86  and  _87
REMARK   35  A    between atoms: _96  and  _98
REMARK   36  A    between atoms: _98  and  _99
REMARK   37  A    between atoms: _98  and  _101
REMARK   38  A    between atoms: _104  and  _106
REMARK   39  A    between atoms: _106  and  _107
REMARK   40  A    between atoms: _110  and  _112
REMARK   41  A    between atoms: _112  and  _113
REMARK   42  A    between atoms: _112  and  _115
REMARK   43  A    between atoms: _118  and  _120
REMARK   44  A    between atoms: _120  and  _121
REMARK   45  A    between atoms: _120  and  _123
REMARK   46  A    between atoms: _123  and  _124
REMARK   47  A    between atoms: _124  and  _125
REMARK   48  A    between atoms: _125  and  _126
REMARK   49  A    between atoms: _126  and  _127
REMARK   50  A    between atoms: _131  and  _133
REMARK   51  A    between atoms: _133  and  _134
REMARK   52  A    between atoms: _133  and  _136
REMARK   53  A    between atoms: _136  and  _137
REMARK   54  A    between atoms: _137  and  _138
REMARK   55  A    between atoms: _138  and  _139
REMARK   56  A    between atoms: _139  and  _140
REMARK   57  A    between atoms: _144  and  _146
REMARK   58  A    between atoms: _146  and  _147
REMARK   59  A    between atoms: _146  and  _149
REMARK   60  A    between atoms: _149  and  _150
REMARK   61  A    between atoms: _153  and  _155
REMARK   62  A    between atoms: _155  and  _156
REMARK   63  A    between atoms: _155  and  _158
REMARK   64  A    between atoms: _158  and  _159
REMARK   65  A    between atoms: _159  and  _160
REMARK   66  A    between atoms: _160  and  _161
REMARK   67  A    between atoms: _170  and  _172
REMARK   68  A    between atoms: _172  and  _173
REMARK   69  A    between atoms: _172  and  _175
REMARK   70  A    between atoms: _175  and  _176
REMARK   71  A    between atoms: _176  and  _177
REMARK   72  A    between atoms: _177  and  _178
REMARK   73  A    between atoms: _187  and  _189
REMARK   74  A    between atoms: _189  and  _190
REMARK   75  A    between atoms: _189  and  _192
REMARK   76  A    between atoms: _192  and  _193
REMARK   77  A    between atoms: _193  and  _194
REMARK   78  A    between atoms: _197  and  _199
REMARK   79  A    between atoms: _199  and  _200
REMARK   80  A    between atoms: _199  and  _202
REMARK   81  A    between atoms: _202  and  _203
REMARK   82  A    between atoms: _206  and  _208
REMARK   83  A    between atoms: _208  and  _209
REMARK   84  A    between atoms: _208  and  _211
REMARK   85  A    between atoms: _211  and  _212
REMARK   86  A    between atoms: _212  and  _213
REMARK   87  A    between atoms: _213  and  _214
REMARK   88  A    between atoms: _223  and  _225
REMARK   89  A    between atoms: _225  and  _226
REMARK   90  A    between atoms: _225  and  _228
REMARK   91  A    between atoms: _228  and  _229
REMARK   92  A    between atoms: _232  and  _234
REMARK   93  A    between atoms: _234  and  _235
REMARK   94  A    between atoms: _234  and  _237
REMARK   95  A    between atoms: _237  and  _238
REMARK   96  A    between atoms: _241  and  _243
REMARK   97  A    between atoms: _243  and  _244
REMARK   98  A    between atoms: _243  and  _246
REMARK   99  A    between atoms: _246  and  _247
REMARK  100  A    between atoms: _247  and  _248
REMARK  101  A    between atoms: _248  and  _249
REMARK  102  A    between atoms: _249  and  _250
REMARK  103  A    between atoms: _254  and  _256
REMARK  104  A    between atoms: _256  and  _257
REMARK  105  A    between atoms: _256  and  _259
REMARK  106  A    between atoms: _259  and  _260
REMARK  107  A    between atoms: _260  and  _261
REMARK  108  A    between atoms: _263  and  _265
REMARK  109  A    between atoms: _265  and  _266
REMARK  110  A    between atoms: _265  and  _268
REMARK  111  A    between atoms: _271  and  _273
REMARK  112  A    between atoms: _273  and  _274
REMARK  113  A    between atoms: _273  and  _276
REMARK  114  A    between atoms: _276  and  _277
REMARK  115  A    between atoms: _280  and  _282
REMARK  116  A    between atoms: _282  and  _283
REMARK  117  A    between atoms: _285  and  _287
REMARK  118  A    between atoms: _287  and  _288
REMARK  119  A    between atoms: _287  and  _290
REMARK  120  A    between atoms: _290  and  _291
REMARK  121  A    between atoms: _294  and  _296
REMARK  122  A    between atoms: _296  and  _297
REMARK  123  A    between atoms: _296  and  _299
REMARK  124  A    between atoms: _299  and  _300
REMARK  125  A    between atoms: _303  and  _305
REMARK  126  A    between atoms: _305  and  _306
REMARK  127  A    between atoms: _305  and  _308
REMARK  128  A    between atoms: _308  and  _309
REMARK  129  A    between atoms: _312  and  _314
REMARK  130  A    between atoms: _314  and  _315
REMARK  131  A    between atoms: _314  and  _317
REMARK  132  A    between atoms: _317  and  _318
REMARK  133  A    between atoms: _323  and  _324
REMARK  134  A    between atoms: _326  and  _328
REMARK  135  A    between atoms: _328  and  _329
REMARK  136  A    between atoms: _328  and  _331
REMARK  137  A    between atoms: _331  and  _332
REMARK  138  A    between atoms: _335  and  _337
REMARK  139  A    between atoms: _337  and  _338
REMARK  140  A    between atoms: _337  and  _340
REMARK  141  A    between atoms: _343  and  _345
REMARK  142  A    between atoms: _345  and  _346
REMARK  143  A    between atoms: _345  and  _348
REMARK  144  A    between atoms: _348  and  _349
REMARK  145  A    between atoms: _352  and  _354
REMARK  146  A    between atoms: _354  and  _355
REMARK  147  A    between atoms: _354  and  _357
REMARK  148  A    between atoms: _357  and  _358
REMARK  149  A    between atoms: _363  and  _365
REMARK  150  A    between atoms: _365  and  _366
REMARK  151  A    between atoms: _365  and  _368
REMARK  152  A    between atoms: _368  and  _369
REMARK  153  A    between atoms: _372  and  _374
REMARK  154  A    between atoms: _374  and  _375
REMARK  155  A    between atoms: _374  and  _377
REMARK  156  A    between atoms: _377  and  _378
REMARK  157  A    between atoms: _378  and  _379
REMARK  158  A    between atoms: _381  and  _383
REMARK  159  A    between atoms: _383  and  _384
REMARK  160  A    between atoms: _386  and  _388
REMARK  161  A    between atoms: _388  and  _389
REMARK  162  A    between atoms: _392  and  _394
REMARK  163  A    between atoms: _394  and  _395
REMARK  164  A    between atoms: _394  and  _397
REMARK  165  A    between atoms: _397  and  _398
REMARK  166  A    between atoms: _401  and  _403
REMARK  167  A    between atoms: _403  and  _404
REMARK  168  A    between atoms: _403  and  _406
REMARK  169  A    between atoms: _406  and  _407
REMARK  170  A    between atoms: _410  and  _412
REMARK  171  A    between atoms: _412  and  _413
REMARK  172  A    between atoms: _412  and  _415
REMARK  173  A    between atoms: _415  and  _416
REMARK  174  A    between atoms: _421  and  _423
REMARK  175  A    between atoms: _423  and  _424
REMARK  176  A    between atoms: _423  and  _426
REMARK  177  A    between atoms: _426  and  _427
REMARK  178  A    between atoms: _432  and  _434
REMARK  179  A    between atoms: _434  and  _435
REMARK  180  A    between atoms: _434  and  _437
REMARK  181  A    between atoms: _437  and  _438
REMARK  182  A    between atoms: _441  and  _443
REMARK  183  A    between atoms: _443  and  _444
REMARK  184  A    between atoms: _443  and  _446
REMARK  185  A    between atoms: _446  and  _447
REMARK  186  A    between atoms: _450  and  _452
REMARK  187  A    between atoms: _452  and  _453
REMARK  188  A    between atoms: _452  and  _455
REMARK  189  A    between atoms: _455  and  _456
REMARK  190  A    between atoms: _461  and  _463
REMARK  191  A    between atoms: _463  and  _464
REMARK  192  A    between atoms: _463  and  _466
REMARK  193  A    between atoms: _466  and  _467
REMARK  194  A    between atoms: _469  and  _471
REMARK  195  A    between atoms: _471  and  _472
REMARK  196  A    between atoms: _471  and  _474
REMARK  197  A    between atoms: _474  and  _475
REMARK  198  A    between atoms: _480  and  _482
REMARK  199  A    between atoms: _482  and  _483
REMARK  200  A    between atoms: _482  and  _485
REMARK  201  A    between atoms: _485  and  _486
REMARK  202  A    between atoms: _489  and  _491
REMARK  203  A    between atoms: _491  and  _492
REMARK  204  A    between atoms: _495  and  _497
REMARK  205  A    between atoms: _497  and  _498
REMARK  206  A    between atoms: _497  and  _500
REMARK  207  A    between atoms: _503  and  _505
REMARK  208  A    between atoms: _505  and  _506
REMARK  209  A    between atoms: _505  and  _508
REMARK  210  A    between atoms: _508  and  _509
REMARK  211  A    between atoms: _509  and  _510
REMARK  212  A    between atoms: _510  and  _511
REMARK  213  A    between atoms: _511  and  _512
REMARK  214  A    between atoms: _516  and  _518
REMARK  215  A    between atoms: _518  and  _519
REMARK  216  A    between atoms: _518  and  _521
REMARK  217  A    between atoms: _521  and  _522
REMARK  218  A    between atoms: _525  and  _527
REMARK  219  A    between atoms: _527  and  _528
REMARK  220  A    between atoms: _527  and  _530
REMARK  221  A    between atoms: _530  and  _531
REMARK  222  A    between atoms: _534  and  _536
REMARK  223  A    between atoms: _536  and  _537
REMARK  224  A    between atoms: _536  and  _539
REMARK  225  A    between atoms: _539  and  _540
REMARK  226  A    between atoms: _543  and  _545
REMARK  227  A    between atoms: _545  and  _546
REMARK  228  A    between atoms: _545  and  _548
REMARK  229  A    between atoms: _548  and  _549
REMARK  230  A    between atoms: _555  and  _557
REMARK  231  A    between atoms: _557  and  _558
REMARK  232  A    between atoms: _560  and  _562
REMARK  233  A    between atoms: _562  and  _563
REMARK  234  A    between atoms: _562  and  _565
REMARK  235  A    between atoms: _565  and  _566
REMARK                            x       y       z     vdW  Elec       q    Type
REMARK                         _______ _______ _______ _____ _____    ______ ____
ROOT
ATOM      1  CA  ARG A   4      28.945  26.340  37.347  0.00  0.00    +0.149 C 
ENDROOT
BRANCH   1   3
ATOM      2  C   LEU A   3      29.918  27.238  35.305  0.00  0.00    +0.241 C 
ATOM      3  N   ARG A   4      29.445  26.187  35.978  0.00  0.00    -0.297 N 
ATOM      4  H   ARG A   4      29.431  25.250  35.526  0.00  0.00    +0.150 HD
ATOM      5  O   LEU A   3      29.945  28.382  35.784  0.00  0.00    -0.273 OA
BRANCH   2   6
ATOM      6  CA  LEU A   3      30.467  26.975  33.891  0.00  0.00    +0.149 C 
BRANCH   6   9
ATOM      7  C   GLU A   2      32.422  25.710  34.568  0.00  0.00    +0.241 C 
ATOM      8  O   GLU A   2      32.871  26.649  35.219  0.00  0.00    -0.273 OA
ATOM      9  N   LEU A   3      31.275  25.775  33.894  0.00  0.00    -0.297 N 
ATOM     10  H   LEU A   3      30.953  24.944  33.358  0.00  0.00    +0.150 HD
BRANCH   7  11
ATOM     11  CA  GLU A   2      33.191  24.387  34.485  0.00  0.00    +0.149 C 
BRANCH  11  14
ATOM     12  C   ARG A   1      31.623  23.066  35.794  0.00  0.00    +0.238 C 
ATOM     13  O   ARG A   1      31.564  23.929  36.676  0.00  0.00    -0.274 OA
ATOM     14  N   GLU A   2      32.353  23.214  34.689  0.00  0.00    -0.297 N 
ATOM     15  H   GLU A   2      32.323  22.476  33.957  0.00  0.00    +0.150 HD
BRANCH  12  16
ATOM     16  CA  ARG A   1      30.797  21.777  35.919  0.00  0.00    +0.145 C 
BRANCH  16  17
ATOM     17  N   ARG A   1      29.929  21.589  34.745  0.00  0.00    -0.238 NA
ATOM     18  H   ARG A   1      29.927  20.666  34.266  0.00  0.00    +0.142 HD
ENDBRANCH  16  17
BRANCH  16  19
ATOM     19  CB  ARG A   1      31.731  20.573  36.101  0.00  0.00    +0.030 C 
BRANCH  19  20
ATOM     20  CG  ARG A   1      32.692  20.679  37.267  0.00  0.00    +0.045 C 
BRANCH  20  21
ATOM     21  CD  ARG A   1      33.608  19.462  37.377  0.00  0.00    +0.174 C 
BRANCH  21  22
ATOM     22  NE  ARG A   1      32.881  18.205  37.581  0.00  0.00    -0.265 N 
ATOM     23  HE  ARG A   1      32.351  18.095  38.469  0.00  0.00    +0.259 HD
ATOM     24  CZ  ARG A   1      32.848  17.186  36.710  0.00  0.00    +0.342 C 
ATOM     25  NH2 ARG A   1      32.148  16.093  36.991  0.00  0.00    -0.292 N 
ATOM     26 HH21 ARG A   1      31.625  16.027  37.887  0.00  0.00    +0.255 HD
ATOM     27 HH22 ARG A   1      32.123  15.303  36.315  0.00  0.00    +0.255 HD
ATOM     28  NH1 ARG A   1      33.518  17.240  35.563  0.00  0.00    -0.292 N 
ATOM     29 HH11 ARG A   1      34.080  18.083  35.328  0.00  0.00    +0.255 HD
ATOM     30 HH12 ARG A   1      33.480  16.439  34.900  0.00  0.00    +0.255 HD
ENDBRANCH  21  22
ENDBRANCH  20  21
ENDBRANCH  19  20
ENDBRANCH  16  19
ENDBRANCH  12  16
ENDBRANCH  11  14
BRANCH  11  31
ATOM     31  CB  GLU A   2      33.937  24.290  33.161  0.00  0.00    +0.041 C 
BRANCH  31  32
ATOM     32  CG  GLU A   2      34.771  25.521  32.865  0.00  0.00    +0.116 C 
BRANCH  32  33
ATOM     33  CD  GLU A   2      35.853  25.244  31.859  0.00  0.00    +0.365 C 
ATOM     34  OE2 GLU A   2      36.639  26.169  31.547  0.00  0.00    -0.246 OA
ATOM     35  OE1 GLU A   2      35.938  24.082  31.403  0.00  0.00    -0.246 OA
ENDBRANCH  32  33
ENDBRANCH  31  32
ENDBRANCH  11  31
ENDBRANCH   7  11
ENDBRANCH   6   9
BRANCH   6  36
ATOM     36  CB  LEU A   3      29.338  26.871  32.858  0.00  0.00    +0.029 C 
BRANCH  36  37
ATOM     37  CG  LEU A   3      28.427  28.088  32.644  0.00  0.00    +0.002 C 
ATOM     38  CD2 LEU A   3      29.255  29.292  32.236  0.00  0.00    +0.000 C 
ATOM     39  CD1 LEU A   3      27.329  27.814  31.583  0.00  0.00    +0.000 C 
ENDBRANCH  36  37
ENDBRANCH   6  36
ENDBRANCH   2   6
ENDBRANCH   1   3
BRANCH   1  40
ATOM     40  C   ARG A   4      30.038  26.904  38.258  0.00  0.00    +0.241 C 
ATOM     41  O   ARG A   4      29.803  27.890  38.947  0.00  0.00    -0.273 OA
ATOM     42  N   LEU A   5      31.232  26.304  38.216  0.00  0.00    -0.297 N 
ATOM     43  H   LEU A   5      31.357  25.484  37.589  0.00  0.00    +0.150 HD
BRANCH  42  44
ATOM     44  CA  LEU A   5      32.371  26.756  39.018  0.00  0.00    +0.149 C 
BRANCH  44  45
ATOM     45  C   LEU A   5      32.688  28.212  38.772  0.00  0.00    +0.241 C 
ATOM     46  O   LEU A   5      32.776  28.984  39.717  0.00  0.00    -0.273 OA
ATOM     47  N   LEU A   6      32.852  28.587  37.506  0.00  0.00    -0.297 N 
ATOM     48  H   LEU A   6      32.713  27.889  36.747  0.00  0.00    +0.150 HD
BRANCH  47  49
ATOM     49  CA  LEU A   6      33.220  29.948  37.160  0.00  0.00    +0.149 C 
BRANCH  49  50
ATOM     50  C   LEU A   6      32.158  30.990  37.505  0.00  0.00    +0.241 C 
ATOM     51  O   LEU A   6      32.498  32.123  37.910  0.00  0.00    -0.273 OA
ATOM     52  N   LYS A   7      30.884  30.635  37.335  0.00  0.00    -0.298 N 
ATOM     53  H   LYS A   7      30.649  29.694  36.960  0.00  0.00    +0.150 HD
BRANCH  52  54
ATOM     54  CA  LYS A   7      29.830  31.566  37.675  0.00  0.00    +0.137 C 
BRANCH  54  55
ATOM     55  C   LYS A   7      29.797  31.835  39.180  0.00  0.00    +0.227 C 
ATOM     56  O   LYS A   7      29.362  32.901  39.609  0.00  0.00    -0.286 OA
ENDBRANCH  54  55
BRANCH  54  57
ATOM     57  CB  LYS A   7      28.463  31.058  37.225  0.00  0.00    +0.028 C 
BRANCH  57  58
ATOM     58  CG  LYS A   7      28.222  31.142  35.733  0.00  0.00    -0.000 C 
BRANCH  58  59
ATOM     59  CD  LYS A   7      26.779  30.808  35.391  0.00  0.00    -0.024 C 
BRANCH  59  60
ATOM     60  CE  LYS A   7      25.803  31.849  35.906  0.00  0.00    -0.086 C 
BRANCH  60  61
ATOM     61  NZ  LYS A   7      24.397  31.496  35.522  0.00  0.00    +0.380 N 
ATOM     62  HZ1 LYS A   7      24.149  30.572  35.930  0.00  0.00    -0.089 HD
ATOM     63  HZ2 LYS A   7      23.747  32.222  35.885  0.00  0.00    -0.089 HD
ATOM     64  HZ3 LYS A   7      24.323  31.450  34.486  0.00  0.00    -0.089 HD
ENDBRANCH  60  61
ENDBRANCH  59  60
ENDBRANCH  58  59
ENDBRANCH  57  58
ENDBRANCH  54  57
ENDBRANCH  52  54
ENDBRANCH  49  50
BRANCH  49  65
ATOM     65  CB  LEU A   6      33.576  30.040  35.685  0.00  0.00    +0.029 C 
BRANCH  65  66
ATOM     66  CG  LEU A   6      34.916  29.488  35.249  0.00  0.00    +0.002 C 
ATOM     67  CD2 LEU A   6      36.042  30.182  35.987  0.00  0.00    +0.000 C 
ATOM     68  CD1 LEU A   6      35.024  29.726  33.763  0.00  0.00    +0.000 C 
ENDBRANCH  65  66
ENDBRANCH  49  65
ENDBRANCH  47  49
ENDBRANCH  44  45
BRANCH  44  69
ATOM     69  CB  LEU A   5      33.635  25.909  38.757  0.00  0.00    +0.029 C 
BRANCH  69  70
ATOM     70  CG  LEU A   5      33.764  24.666  39.631  0.00  0.00    +0.002 C 
ATOM     71  CD2 LEU A   5      34.090  25.072  41.079  0.00  0.00    +0.000 C 
ATOM     72  CD1 LEU A   5      34.784  23.645  39.104  0.00  0.00    +0.000 C 
ENDBRANCH  69  70
ENDBRANCH  44  69
ENDBRANCH  42  44
ENDBRANCH   1  40
BRANCH   1  73
ATOM     73  CB  ARG A   4      28.393  25.026  37.896  0.00  0.00    +0.033 C 
BRANCH  73  74
ATOM     74  CG  ARG A   4      27.028  24.626  37.328  0.00  0.00    +0.045 C 
BRANCH  74  75
ATOM     75  CD  ARG A   4      25.910  25.522  37.847  0.00  0.00    +0.174 C 
BRANCH  75  76
ATOM     76  NE  ARG A   4      26.023  25.725  39.291  0.00  0.00    -0.265 N 
ATOM     77  CZ  ARG A   4      25.511  24.910  40.210  0.00  0.00    +0.342 C 
ATOM     78  NH2 ARG A   4      25.701  25.182  41.487  0.00  0.00    -0.292 N 
ATOM     79 HH21 ARG A   4      25.307  24.554  42.217  0.00  0.00    +0.255 HD
ATOM     80 HH22 ARG A   4      26.245  26.024  41.764  0.00  0.00    +0.255 HD
ATOM     81  NH1 ARG A   4      24.810  23.825  39.855  0.00  0.00    -0.292 N 
ATOM     82 HH11 ARG A   4      24.416  23.198  40.586  0.00  0.00    +0.255 HD
ATOM     83 HH12 ARG A   4      24.659  23.610  38.849  0.00  0.00    +0.255 HD
ATOM     84  HE  ARG A   4      26.539  26.565  39.623  0.00  0.00    +0.259 HD
ENDBRANCH  75  76
ENDBRANCH  74  75
ENDBRANCH  73  74
ENDBRANCH   1  73
TORSDOF 36
REMARK  Name = ../refined-set-2016/2zb1/2zb1_pocket.pdb
REMARK  235 active torsions:
REMARK  status: ('A' for Active; 'I' for Inactive)
REMARK    1  A    between atoms: _1  and  _3
REMARK    2  A    between atoms: _3  and  _4
REMARK    3  A    between atoms: _3  and  _6
REMARK    4  A    between atoms: _6  and  _7
REMARK    5  A    between atoms: _17  and  _19
REMARK    6  A    between atoms: _19  and  _20
REMARK    7  A    between atoms: _19  and  _22
REMARK    8  A    between atoms: _25  and  _27
REMARK    9  A    between atoms: _27  and  _28
REMARK   10  A    between atoms: _31  and  _33
REMARK   11  A    between atoms: _33  and  _34
REMARK   12  A    between atoms: _33  and  _36
REMARK   13  A    between atoms: _36  and  _37
REMARK   14  A    between atoms: _42  and  _43
REMARK   15  A    between atoms: _45  and  _47
REMARK   16  A    between atoms: _47  and  _48
REMARK   17  A    between atoms: _50  and  _52
REMARK   18  A    between atoms: _52  and  _53
REMARK   19  A    between atoms: _52  and  _55
REMARK   20  A    between atoms: _55  and  _56
REMARK   21  A    between atoms: _58  and  _60
REMARK   22  A    between atoms: _60  and  _61
REMARK   23  A    between atoms: _60  and  _63
REMARK   24  A    between atoms: _66  and  _68
REMARK   25  A    between atoms: _68  and  _69
REMARK   26  A    between atoms: _68  and  _71
REMARK   27  A    between atoms: _73  and  _75
REMARK   28  A    between atoms: _75  and  _76
REMARK   29  A    between atoms: _79  and  _81
REMARK   30  A    between atoms: _81  and  _82
REMARK   31  A    between atoms: _81  and  _84
REMARK   32  A    between atoms: _84  and  _85
REMARK   33  A    between atoms: _85  and  _86
REMARK   34  A    between atoms: _86  and  _87
REMARK   35  A    between atoms: _96  and  _98
REMARK   36  A    between atoms: _98  and  _99
REMARK   37  A    between atoms: _98  and  _101
REMARK   38  A    between atoms: _104  and  _106
REMARK   39  A    between atoms: _106  and  _107
REMARK   40  A    between atoms: _110  and  _112
REMARK   41  A    between atoms: _112  and  _113
REMARK   42  A    between atoms: _112  and  _115
REMARK   43  A    between atoms: _118  and  _120
REMARK   44  A    between atoms: _120  and  _121
REMARK   45  A    between atoms: _120  and  _123
REMARK   46  A    between atoms: _123  and  _124
REMARK   47  A    between atoms: _124  and  _125
REMARK   48  A    between atoms: _125  and  _126
REMARK   49  A    between atoms: _126  and  _127
REMARK   50  A    between atoms: _131  and  _133
REMARK   51  A    between atoms: _133  and  _134
REMARK   52  A    between atoms: _133  and  _136
REMARK   53  A    between atoms: _136  and  _137
REMARK   54  A    between atoms: _137  and  _138
REMARK   55  A    between atoms: _138  and  _139
REMARK   56  A    between atoms: _139  and  _140
REMARK   57  A    between atoms: _144  and  _146
REMARK   58  A    between atoms: _146  and  _147
REMARK   59  A    between atoms: _146  and  _149
REMARK   60  A    between atoms: _149  and  _150
REMARK   61  A    between atoms: _153  and  _155
REMARK   62  A    between atoms: _155  and  _156
REMARK   63  A    between atoms: _155  and  _158
REMARK   64  A    between atoms: _158  and  _159
REMARK   65  A    between atoms: _159  and  _160
REMARK   66  A    between atoms: _160  and  _161
REMARK   67  A    between atoms: _170  and  _172
REMARK   68  A    between atoms: _172  and  _173
REMARK   69  A    between atoms: _172  and  _175
REMARK   70  A    between atoms: _175  and  _176
REMARK   71  A    between atoms: _176  and  _177
REMARK   72  A    between atoms: _177  and  _178
REMARK   73  A    between atoms: _187  and  _189
REMARK   74  A    between atoms: _189  and  _190
REMARK   75  A    between atoms: _189  and  _192
REMARK   76  A    between atoms: _192  and  _193
REMARK   77  A    between atoms: _193  and  _194
REMARK   78  A    between atoms: _197  and  _199
REMARK   79  A    between atoms: _199  and  _200
REMARK   80  A    between atoms: _199  and  _202
REMARK   81  A    between atoms: _202  and  _203
REMARK   82  A    between atoms: _206  and  _208
REMARK   83  A    between atoms: _208  and  _209
REMARK   84  A    between atoms: _208  and  _211
REMARK   85  A    between atoms: _211  and  _212
REMARK   86  A    between atoms: _212  and  _213
REMARK   87  A    between atoms: _213  and  _214
REMARK   88  A    between atoms: _223  and  _225
REMARK   89  A    between atoms: _225  and  _226
REMARK   90  A    between atoms: _225  and  _228
REMARK   91  A    between atoms: _228  and  _229
REMARK   92  A    between atoms: _232  and  _234
REMARK   93  A    between atoms: _234  and  _235
REMARK   94  A    between atoms: _234  and  _237
REMARK   95  A    between atoms: _237  and  _238
REMARK   96  A    between atoms: _241  and  _243
REMARK   97  A    between atoms: _243  and  _244
REMARK   98  A    between atoms: _243  and  _246
REMARK   99  A    between atoms: _246  and  _247
REMARK  100  A    between atoms: _247  and  _248
REMARK  101  A    between atoms: _248  and  _249
REMARK  102  A    between atoms: _249  and  _250
REMARK  103  A    between atoms: _254  and  _256
REMARK  104  A    between atoms: _256  and  _257
REMARK  105  A    between atoms: _256  and  _259
REMARK  106  A    between atoms: _259  and  _260
REMARK  107  A    between atoms: _260  and  _261
REMARK  108  A    between atoms: _263  and  _265
REMARK  109  A    between atoms: _265  and  _266
REMARK  110  A    between atoms: _265  and  _268
REMARK  111  A    between atoms: _271  and  _273
REMARK  112  A    between atoms: _273  and  _274
REMARK  113  A    between atoms: _273  and  _276
REMARK  114  A    between atoms: _276  and  _277
REMARK  115  A    between atoms: _280  and  _282
REMARK  116  A    between atoms: _282  and  _283
REMARK  117  A    between atoms: _285  and  _287
REMARK  118  A    between atoms: _287  and  _288
REMARK  119  A    between atoms: _287  and  _290
REMARK  120  A    between atoms: _290  and  _291
REMARK  121  A    between atoms: _294  and  _296
REMARK  122  A    between atoms: _296  and  _297
REMARK  123  A    between atoms: _296  and  _299
REMARK  124  A    between atoms: _299  and  _300
REMARK  125  A    between atoms: _303  and  _305
REMARK  126  A    between atoms: _305  and  _306
REMARK  127  A    between atoms: _305  and  _308
REMARK  128  A    between atoms: _308  and  _309
REMARK  129  A    between atoms: _312  and  _314
REMARK  130  A    between atoms: _314  and  _315
REMARK  131  A    between atoms: _314  and  _317
REMARK  132  A    between atoms: _317  and  _318
REMARK  133  A    between atoms: _323  and  _324
REMARK  134  A    between atoms: _326  and  _328
REMARK  135  A    between atoms: _328  and  _329
REMARK  136  A    between atoms: _328  and  _331
REMARK  137  A    between atoms: _331  and  _332
REMARK  138  A    between atoms: _335  and  _337
REMARK  139  A    between atoms: _337  and  _338
REMARK  140  A    between atoms: _337  and  _340
REMARK  141  A    between atoms: _343  and  _345
REMARK  142  A    between atoms: _345  and  _346
REMARK  143  A    between atoms: _345  and  _348
REMARK  144  A    between atoms: _348  and  _349
REMARK  145  A    between atoms: _352  and  _354
REMARK  146  A    between atoms: _354  and  _355
REMARK  147  A    between atoms: _354  and  _357
REMARK  148  A    between atoms: _357  and  _358
REMARK  149  A    between atoms: _363  and  _365
REMARK  150  A    between atoms: _365  and  _366
REMARK  151  A    between atoms: _365  and  _368
REMARK  152  A    between atoms: _368  and  _369
REMARK  153  A    between atoms: _372  and  _374
REMARK  154  A    between atoms: _374  and  _375
REMARK  155  A    between atoms: _374  and  _377
REMARK  156  A    between atoms: _377  and  _378
REMARK  157  A    between atoms: _378  and  _379
REMARK  158  A    between atoms: _381  and  _383
REMARK  159  A    between atoms: _383  and  _384
REMARK  160  A    between atoms: _386  and  _388
REMARK  161  A    between atoms: _388  and  _389
REMARK  162  A    between atoms: _392  and  _394
REMARK  163  A    between atoms: _394  and  _395
REMARK  164  A    between atoms: _394  and  _397
REMARK  165  A    between atoms: _397  and  _398
REMARK  166  A    between atoms: _401  and  _403
REMARK  167  A    between atoms: _403  and  _404
REMARK  168  A    between atoms: _403  and  _406
REMARK  169  A    between atoms: _406  and  _407
REMARK  170  A    between atoms: _410  and  _412
REMARK  171  A    between atoms: _412  and  _413
REMARK  172  A    between atoms: _412  and  _415
REMARK  173  A    between atoms: _415  and  _416
REMARK  174  A    between atoms: _421  and  _423
REMARK  175  A    between atoms: _423  and  _424
REMARK  176  A    between atoms: _423  and  _426
REMARK  177  A    between atoms: _426  and  _427
REMARK  178  A    between atoms: _432  and  _434
REMARK  179  A    between atoms: _434  and  _435
REMARK  180  A    between atoms: _434  and  _437
REMARK  181  A    between atoms: _437  and  _438
REMARK  182  A    between atoms: _441  and  _443
REMARK  183  A    between atoms: _443  and  _444
REMARK  184  A    between atoms: _443  and  _446
REMARK  185  A    between atoms: _446  and  _447
REMARK  186  A    between atoms: _450  and  _452
REMARK  187  A    between atoms: _452  and  _453
REMARK  188  A    between atoms: _452  and  _455
REMARK  189  A    between atoms: _455  and  _456
REMARK  190  A    between atoms: _461  and  _463
REMARK  191  A    between atoms: _463  and  _464
REMARK  192  A    between atoms: _463  and  _466
REMARK  193  A    between atoms: _466  and  _467
REMARK  194  A    between atoms: _469  and  _471
REMARK  195  A    between atoms: _471  and  _472
REMARK  196  A    between atoms: _471  and  _474
REMARK  197  A    between atoms: _474  and  _475
REMARK  198  A    between atoms: _480  and  _482
REMARK  199  A    between atoms: _482  and  _483
REMARK  200  A    between atoms: _482  and  _485
REMARK  201  A    between atoms: _485  and  _486
REMARK  202  A    between atoms: _489  and  _491
REMARK  203  A    between atoms: _491  and  _492
REMARK  204  A    between atoms: _495  and  _497
REMARK  205  A    between atoms: _497  and  _498
REMARK  206  A    between atoms: _497  and  _500
REMARK  207  A    between atoms: _503  and  _505
REMARK  208  A    between atoms: _505  and  _506
REMARK  209  A    between atoms: _505  and  _508
REMARK  210  A    between atoms: _508  and  _509
REMARK  211  A    between atoms: _509  and  _510
REMARK  212  A    between atoms: _510  and  _511
REMARK  213  A    between atoms: _511  and  _512
REMARK  214  A    between atoms: _516  and  _518
REMARK  215  A    between atoms: _518  and  _519
REMARK  216  A    between atoms: _518  and  _521
REMARK  217  A    between atoms: _521  and  _522
REMARK  218  A    between atoms: _525  and  _527
REMARK  219  A    between atoms: _527  and  _528
REMARK  220  A    between atoms: _527  and  _530
REMARK  221  A    between atoms: _530  and  _531
REMARK  222  A    between atoms: _534  and  _536
REMARK  223  A    between atoms: _536  and  _537
REMARK  224  A    between atoms: _536  and  _539
REMARK  225  A    between atoms: _539  and  _540
REMARK  226  A    between atoms: _543  and  _545
REMARK  227  A    between atoms: _545  and  _546
REMARK  228  A    between atoms: _545  and  _548
REMARK  229  A    between atoms: _548  and  _549
REMARK  230  A    between atoms: _555  and  _557
REMARK  231  A    between atoms: _557  and  _558
REMARK  232  A    between atoms: _560  and  _562
REMARK  233  A    between atoms: _562  and  _563
REMARK  234  A    between atoms: _562  and  _565
REMARK  235  A    between atoms: _565  and  _566
REMARK                            x       y       z     vdW  Elec       q    Type
REMARK                         _______ _______ _______ _____ _____    ______ ____
ROOT
ATOM      1  CA  MET A   1      33.692  32.418  41.967  0.00  0.00    +0.134 C 
ENDROOT
BRANCH   1   2
ATOM      2  N   MET A   1      32.487  31.808  41.400  0.00  0.00    -0.239 NA
ATOM      3  H   MET A   1      32.559  31.288  40.502  0.00  0.00    +0.142 HD
ENDBRANCH   1   2
BRANCH   1   4
ATOM      4  C   MET A   1      33.744  33.934  41.821  0.00  0.00    +0.224 C 
ATOM      5  O   MET A   1      34.050  34.445  40.748  0.00  0.00    -0.287 OA
ENDBRANCH   1   4
BRANCH   1   6
ATOM      6  CB  MET A   1      34.973  31.819  41.366  0.00  0.00    +0.037 C 
BRANCH   6   7
ATOM      7  CG  MET A   1      35.150  30.319  41.464  0.00  0.00    +0.059 C 
BRANCH   7   8
ATOM      8  SD  MET A   1      35.482  29.710  43.121  0.00  0.00    -0.139 S 
ATOM      9  CE  MET A   1      33.849  29.701  43.873  0.00  0.00    +0.069 C 
ENDBRANCH   7   8
ENDBRANCH   6   7
ENDBRANCH   1   6
TORSDOF 5
REMARK  Name = ../refined-set-2016/2zb1/2zb1_pocket.pdb
REMARK  235 active torsions:
REMARK  status: ('A' for Active; 'I' for Inactive)
REMARK    1  A    between atoms: _1  and  _3
REMARK    2  A    between atoms: _3  and  _4
REMARK    3  A    between atoms: _3  and  _6
REMARK    4  A    between atoms: _6  and  _7
REMARK    5  A    between atoms: _17  and  _19
REMARK    6  A    between atoms: _19  and  _20
REMARK    7  A    between atoms: _19  and  _22
REMARK    8  A    between atoms: _25  and  _27
REMARK    9  A    between atoms: _27  and  _28
REMARK   10  A    between atoms: _31  and  _33
REMARK   11  A    between atoms: _33  and  _34
REMARK   12  A    between atoms: _33  and  _36
REMARK   13  A    between atoms: _36  and  _37
REMARK   14  A    between atoms: _42  and  _43
REMARK   15  A    between atoms: _45  and  _47
REMARK   16  A    between atoms: _47  and  _48
REMARK   17  A    between atoms: _50  and  _52
REMARK   18  A    between atoms: _52  and  _53
REMARK   19  A    between atoms: _52  and  _55
REMARK   20  A    between atoms: _55  and  _56
REMARK   21  A    between atoms: _58  and  _60
REMARK   22  A    between atoms: _60  and  _61
REMARK   23  A    between atoms: _60  and  _63
REMARK   24  A    between atoms: _66  and  _68
REMARK   25  A    between atoms: _68  and  _69
REMARK   26  A    between atoms: _68  and  _71
REMARK   27  A    between atoms: _73  and  _75
REMARK   28  A    between atoms: _75  and  _76
REMARK   29  A    between atoms: _79  and  _81
REMARK   30  A    between atoms: _81  and  _82
REMARK   31  A    between atoms: _81  and  _84
REMARK   32  A    between atoms: _84  and  _85
REMARK   33  A    between atoms: _85  and  _86
REMARK   34  A    between atoms: _86  and  _87
REMARK   35  A    between atoms: _96  and  _98
REMARK   36  A    between atoms: _98  and  _99
REMARK   37  A    between atoms: _98  and  _101
REMARK   38  A    between atoms: _104  and  _106
REMARK   39  A    between atoms: _106  and  _107
REMARK   40  A    between atoms: _110  and  _112
REMARK   41  A    between atoms: _112  and  _113
REMARK   42  A    between atoms: _112  and  _115
REMARK   43  A    between atoms: _118  and  _120
REMARK   44  A    between atoms: _120  and  _121
REMARK   45  A    between atoms: _120  and  _123
REMARK   46  A    between atoms: _123  and  _124
REMARK   47  A    between atoms: _124  and  _125
REMARK   48  A    between atoms: _125  and  _126
REMARK   49  A    between atoms: _126  and  _127
REMARK   50  A    between atoms: _131  and  _133
REMARK   51  A    between atoms: _133  and  _134
REMARK   52  A    between atoms: _133  and  _136
REMARK   53  A    between atoms: _136  and  _137
REMARK   54  A    between atoms: _137  and  _138
REMARK   55  A    between atoms: _138  and  _139
REMARK   56  A    between atoms: _139  and  _140
REMARK   57  A    between atoms: _144  and  _146
REMARK   58  A    between atoms: _146  and  _147
REMARK   59  A    between atoms: _146  and  _149
REMARK   60  A    between atoms: _149  and  _150
REMARK   61  A    between atoms: _153  and  _155
REMARK   62  A    between atoms: _155  and  _156
REMARK   63  A    between atoms: _155  and  _158
REMARK   64  A    between atoms: _158  and  _159
REMARK   65  A    between atoms: _159  and  _160
REMARK   66  A    between atoms: _160  and  _161
REMARK   67  A    between atoms: _170  and  _172
REMARK   68  A    between atoms: _172  and  _173
REMARK   69  A    between atoms: _172  and  _175
REMARK   70  A    between atoms: _175  and  _176
REMARK   71  A    between atoms: _176  and  _177
REMARK   72  A    between atoms: _177  and  _178
REMARK   73  A    between atoms: _187  and  _189
REMARK   74  A    between atoms: _189  and  _190
REMARK   75  A    between atoms: _189  and  _192
REMARK   76  A    between atoms: _192  and  _193
REMARK   77  A    between atoms: _193  and  _194
REMARK   78  A    between atoms: _197  and  _199
REMARK   79  A    between atoms: _199  and  _200
REMARK   80  A    between atoms: _199  and  _202
REMARK   81  A    between atoms: _202  and  _203
REMARK   82  A    between atoms: _206  and  _208
REMARK   83  A    between atoms: _208  and  _209
REMARK   84  A    between atoms: _208  and  _211
REMARK   85  A    between atoms: _211  and  _212
REMARK   86  A    between atoms: _212  and  _213
REMARK   87  A    between atoms: _213  and  _214
REMARK   88  A    between atoms: _223  and  _225
REMARK   89  A    between atoms: _225  and  _226
REMARK   90  A    between atoms: _225  and  _228
REMARK   91  A    between atoms: _228  and  _229
REMARK   92  A    between atoms: _232  and  _234
REMARK   93  A    between atoms: _234  and  _235
REMARK   94  A    between atoms: _234  and  _237
REMARK   95  A    between atoms: _237  and  _238
REMARK   96  A    between atoms: _241  and  _243
REMARK   97  A    between atoms: _243  and  _244
REMARK   98  A    between atoms: _243  and  _246
REMARK   99  A    between atoms: _246  and  _247
REMARK  100  A    between atoms: _247  and  _248
REMARK  101  A    between atoms: _248  and  _249
REMARK  102  A    between atoms: _249  and  _250
REMARK  103  A    between atoms: _254  and  _256
REMARK  104  A    between atoms: _256  and  _257
REMARK  105  A    between atoms: _256  and  _259
REMARK  106  A    between atoms: _259  and  _260
REMARK  107  A    between atoms: _260  and  _261
REMARK  108  A    between atoms: _263  and  _265
REMARK  109  A    between atoms: _265  and  _266
REMARK  110  A    between atoms: _265  and  _268
REMARK  111  A    between atoms: _271  and  _273
REMARK  112  A    between atoms: _273  and  _274
REMARK  113  A    between atoms: _273  and  _276
REMARK  114  A    between atoms: _276  and  _277
REMARK  115  A    between atoms: _280  and  _282
REMARK  116  A    between atoms: _282  and  _283
REMARK  117  A    between atoms: _285  and  _287
REMARK  118  A    between atoms: _287  and  _288
REMARK  119  A    between atoms: _287  and  _290
REMARK  120  A    between atoms: _290  and  _291
REMARK  121  A    between atoms: _294  and  _296
REMARK  122  A    between atoms: _296  and  _297
REMARK  123  A    between atoms: _296  and  _299
REMARK  124  A    between atoms: _299  and  _300
REMARK  125  A    between atoms: _303  and  _305
REMARK  126  A    between atoms: _305  and  _306
REMARK  127  A    between atoms: _305  and  _308
REMARK  128  A    between atoms: _308  and  _309
REMARK  129  A    between atoms: _312  and  _314
REMARK  130  A    between atoms: _314  and  _315
REMARK  131  A    between atoms: _314  and  _317
REMARK  132  A    between atoms: _317  and  _318
REMARK  133  A    between atoms: _323  and  _324
REMARK  134  A    between atoms: _326  and  _328
REMARK  135  A    between atoms: _328  and  _329
REMARK  136  A    between atoms: _328  and  _331
REMARK  137  A    between atoms: _331  and  _332
REMARK  138  A    between atoms: _335  and  _337
REMARK  139  A    between atoms: _337  and  _338
REMARK  140  A    between atoms: _337  and  _340
REMARK  141  A    between atoms: _343  and  _345
REMARK  142  A    between atoms: _345  and  _346
REMARK  143  A    between atoms: _345  and  _348
REMARK  144  A    between atoms: _348  and  _349
REMARK  145  A    between atoms: _352  and  _354
REMARK  146  A    between atoms: _354  and  _355
REMARK  147  A    between atoms: _354  and  _357
REMARK  148  A    between atoms: _357  and  _358
REMARK  149  A    between atoms: _363  and  _365
REMARK  150  A    between atoms: _365  and  _366
REMARK  151  A    between atoms: _365  and  _368
REMARK  152  A    between atoms: _368  and  _369
REMARK  153  A    between atoms: _372  and  _374
REMARK  154  A    between atoms: _374  and  _375
REMARK  155  A    between atoms: _374  and  _377
REMARK  156  A    between atoms: _377  and  _378
REMARK  157  A    between atoms: _378  and  _379
REMARK  158  A    between atoms: _381  and  _383
REMARK  159  A    between atoms: _383  and  _384
REMARK  160  A    between atoms: _386  and  _388
REMARK  161  A    between atoms: _388  and  _389
REMARK  162  A    between atoms: _392  and  _394
REMARK  163  A    between atoms: _394  and  _395
REMARK  164  A    between atoms: _394  and  _397
REMARK  165  A    between atoms: _397  and  _398
REMARK  166  A    between atoms: _401  and  _403
REMARK  167  A    between atoms: _403  and  _404
REMARK  168  A    between atoms: _403  and  _406
REMARK  169  A    between atoms: _406  and  _407
REMARK  170  A    between atoms: _410  and  _412
REMARK  171  A    between atoms: _412  and  _413
REMARK  172  A    between atoms: _412  and  _415
REMARK  173  A    between atoms: _415  and  _416
REMARK  174  A    between atoms: _421  and  _423
REMARK  175  A    between atoms: _423  and  _424
REMARK  176  A    between atoms: _423  and  _426
REMARK  177  A    between atoms: _426  and  _427
REMARK  178  A    between atoms: _432  and  _434
REMARK  179  A    between atoms: _434  and  _435
REMARK  180  A    between atoms: _434  and  _437
REMARK  181  A    between atoms: _437  and  _438
REMARK  182  A    between atoms: _441  and  _443
REMARK  183  A    between atoms: _443  and  _444
REMARK  184  A    between atoms: _443  and  _446
REMARK  185  A    between atoms: _446  and  _447
REMARK  186  A    between atoms: _450  and  _452
REMARK  187  A    between atoms: _452  and  _453
REMARK  188  A    between atoms: _452  and  _455
REMARK  189  A    between atoms: _455  and  _456
REMARK  190  A    between atoms: _461  and  _463
REMARK  191  A    between atoms: _463  and  _464
REMARK  192  A    between atoms: _463  and  _466
REMARK  193  A    between atoms: _466  and  _467
REMARK  194  A    between atoms: _469  and  _471
REMARK  195  A    between atoms: _471  and  _472
REMARK  196  A    between atoms: _471  and  _474
REMARK  197  A    between atoms: _474  and  _475
REMARK  198  A    between atoms: _480  and  _482
REMARK  199  A    between atoms: _482  and  _483
REMARK  200  A    between atoms: _482  and  _485
REMARK  201  A    between atoms: _485  and  _486
REMARK  202  A    between atoms: _489  and  _491
REMARK  203  A    between atoms: _491  and  _492
REMARK  204  A    between atoms: _495  and  _497
REMARK  205  A    between atoms: _497  and  _498
REMARK  206  A    between atoms: _497  and  _500
REMARK  207  A    between atoms: _503  and  _505
REMARK  208  A    between atoms: _505  and  _506
REMARK  209  A    between atoms: _505  and  _508
REMARK  210  A    between atoms: _508  and  _509
REMARK  211  A    between atoms: _509  and  _510
REMARK  212  A    between atoms: _510  and  _511
REMARK  213  A    between atoms: _511  and  _512
REMARK  214  A    between atoms: _516  and  _518
REMARK  215  A    between atoms: _518  and  _519
REMARK  216  A    between atoms: _518  and  _521
REMARK  217  A    between atoms: _521  and  _522
REMARK  218  A    between atoms: _525  and  _527
REMARK  219  A    between atoms: _527  and  _528
REMARK  220  A    between atoms: _527  and  _530
REMARK  221  A    between atoms: _530  and  _531
REMARK  222  A    between atoms: _534  and  _536
REMARK  223  A    between atoms: _536  and  _537
REMARK  224  A    between atoms: _536  and  _539
REMARK  225  A    between atoms: _539  and  _540
REMARK  226  A    between atoms: _543  and  _545
REMARK  227  A    between atoms: _545  and  _546
REMARK  228  A    between atoms: _545  and  _548
REMARK  229  A    between atoms: _548  and  _549
REMARK  230  A    between atoms: _555  and  _557
REMARK  231  A    between atoms: _557  and  _558
REMARK  232  A    between atoms: _560  and  _562
REMARK  233  A    between atoms: _562  and  _563
REMARK  234  A    between atoms: _562  and  _565
REMARK  235  A    between atoms: _565  and  _566
REMARK                            x       y       z     vdW  Elec       q    Type
REMARK                         _______ _______ _______ _____ _____    ______ ____
ROOT
ATOM      1  CA  LEU A   4      33.584  35.214  34.844  0.00  0.00    +0.149 C 
ENDROOT
BRANCH   1   3
ATOM      2  C   GLY A   3      35.499  35.060  36.311  0.00  0.00    +0.243 C 
ATOM      3  N   LEU A   4      34.184  35.129  36.143  0.00  0.00    -0.297 N 
ATOM      4  H   LEU A   4      33.569  35.121  36.982  0.00  0.00    +0.150 HD
ATOM      5  O   GLY A   3      36.325  35.251  35.408  0.00  0.00    -0.273 OA
BRANCH   2   6
ATOM      6  CA  GLY A   3      35.941  34.764  37.718  0.00  0.00    +0.176 C 
BRANCH   6   9
ATOM      7  C   ILE A   2      38.012  33.774  38.412  0.00  0.00    +0.241 C 
ATOM      8  O   ILE A   2      37.433  32.862  38.995  0.00  0.00    -0.273 OA
ATOM      9  N   GLY A   3      37.369  34.757  37.795  0.00  0.00    -0.295 N 
ATOM     10  H   GLY A   3      37.910  35.532  37.362  0.00  0.00    +0.150 HD
BRANCH   7  11
ATOM     11  CA  ILE A   2      39.548  33.864  38.417  0.00  0.00    +0.148 C 
BRANCH  11  14
ATOM     12  C   VAL A   1      39.707  34.227  40.797  0.00  0.00    +0.238 C 
ATOM     13  O   VAL A   1      39.102  35.287  40.689  0.00  0.00    -0.274 OA
ATOM     14  N   ILE A   2      40.008  33.473  39.745  0.00  0.00    -0.297 N 
ATOM     15  H   ILE A   2      40.570  32.607  39.868  0.00  0.00    +0.150 HD
BRANCH  12  16
ATOM     16  CA  VAL A   1      40.201  33.778  42.160  0.00  0.00    +0.145 C 
BRANCH  16  17
ATOM     17  CB  VAL A   1      39.068  33.111  42.951  0.00  0.00    +0.025 C 
ATOM     18  CG2 VAL A   1      39.510  32.820  44.385  0.00  0.00    +0.002 C 
ATOM     19  CG1 VAL A   1      38.613  31.826  42.269  0.00  0.00    +0.002 C 
ENDBRANCH  16  17
BRANCH  16  20
ATOM     20  N   VAL A   1      40.683  34.989  42.812  0.00  0.00    -0.238 NA
ATOM     21  H   VAL A   1      40.100  35.849  42.773  0.00  0.00    +0.142 HD
ENDBRANCH  16  20
ENDBRANCH  12  16
ENDBRANCH  11  14
BRANCH  11  22
ATOM     22  CB  ILE A   2      40.202  33.025  37.272  0.00  0.00    +0.027 C 
ATOM     23  CG2 ILE A   2      39.673  31.595  37.257  0.00  0.00    +0.002 C 
BRANCH  22  24
ATOM     24  CG1 ILE A   2      39.990  33.684  35.922  0.00  0.00    +0.002 C 
ATOM     25  CD1 ILE A   2      40.789  34.955  35.728  0.00  0.00    +0.000 C 
ENDBRANCH  22  24
ENDBRANCH  11  22
ENDBRANCH   7  11
ENDBRANCH   6   9
ENDBRANCH   2   6
ENDBRANCH   1   3
BRANCH   1  26
ATOM     26  C   LEU A   4      33.126  36.617  34.509  0.00  0.00    +0.241 C 
ATOM     27  O   LEU A   4      32.207  37.173  35.140  0.00  0.00    -0.273 OA
ATOM     28  N   LEU A   5      33.774  37.193  33.508  0.00  0.00    -0.297 N 
ATOM     29  H   LEU A   5      34.572  36.695  33.064  0.00  0.00    +0.150 HD
BRANCH  28  30
ATOM     30  CA  LEU A   5      33.391  38.510  33.016  0.00  0.00    +0.149 C 
BRANCH  30  31
ATOM     31  C   LEU A   5      32.180  38.373  32.105  0.00  0.00    +0.241 C 
ATOM     32  O   LEU A   5      31.266  39.208  32.142  0.00  0.00    -0.273 OA
ATOM     33  N   ASP A   6      32.172  37.316  31.297  0.00  0.00    -0.298 N 
ATOM     34  H   ASP A   6      32.934  36.612  31.368  0.00  0.00    +0.150 HD
BRANCH  33  35
ATOM     35  CA  ASP A   6      31.116  37.129  30.317  0.00  0.00    +0.148 C 
BRANCH  35  36
ATOM     36  C   ASP A   6      31.030  35.661  29.886  0.00  0.00    +0.227 C 
ATOM     37  O   ASP A   6      31.967  34.896  30.086  0.00  0.00    -0.286 OA
ENDBRANCH  35  36
BRANCH  35  38
ATOM     38  CB  ASP A   6      31.373  38.044  29.105  0.00  0.00    +0.142 C 
BRANCH  38  39
ATOM     39  CG  ASP A   6      30.190  38.114  28.152  0.00  0.00    +0.367 C 
ATOM     40  OD2 ASP A   6      29.059  37.783  28.574  0.00  0.00    -0.246 OA
ATOM     41  OD1 ASP A   6      30.386  38.516  26.975  0.00  0.00    -0.246 OA
ENDBRANCH  38  39
ENDBRANCH  35  38
ENDBRANCH  33  35
ENDBRANCH  30  31
BRANCH  30  42
ATOM     42  CB  LEU A   5      34.545  39.173  32.257  0.00  0.00    +0.029 C 
BRANCH  42  43
ATOM     43  CG  LEU A   5      35.728  39.603  33.121  0.00  0.00    +0.002 C 
ATOM     44  CD2 LEU A   5      35.294  40.576  34.256  0.00  0.00    +0.000 C 
ATOM     45  CD1 LEU A   5      36.838  40.211  32.247  0.00  0.00    +0.000 C 
ENDBRANCH  42  43
ENDBRANCH  30  42
ENDBRANCH  28  30
ENDBRANCH   1  26
BRANCH   1  46
ATOM     46  CB  LEU A   4      32.404  34.229  34.784  0.00  0.00    +0.029 C 
BRANCH  46  47
ATOM     47  CG  LEU A   4      31.962  33.752  33.415  0.00  0.00    +0.002 C 
ATOM     48  CD2 LEU A   4      30.802  32.815  33.609  0.00  0.00    +0.000 C 
ATOM     49  CD1 LEU A   4      33.137  33.046  32.691  0.00  0.00    +0.000 C 
ENDBRANCH  46  47
ENDBRANCH   1  46
TORSDOF 21
REMARK  Name = ../refined-set-2016/2zb1/2zb1_pocket.pdb
REMARK  235 active torsions:
REMARK  status: ('A' for Active; 'I' for Inactive)
REMARK    1  A    between atoms: _1  and  _3
REMARK    2  A    between atoms: _3  and  _4
REMARK    3  A    between atoms: _3  and  _6
REMARK    4  A    between atoms: _6  and  _7
REMARK    5  A    between atoms: _17  and  _19
REMARK    6  A    between atoms: _19  and  _20
REMARK    7  A    between atoms: _19  and  _22
REMARK    8  A    between atoms: _25  and  _27
REMARK    9  A    between atoms: _27  and  _28
REMARK   10  A    between atoms: _31  and  _33
REMARK   11  A    between atoms: _33  and  _34
REMARK   12  A    between atoms: _33  and  _36
REMARK   13  A    between atoms: _36  and  _37
REMARK   14  A    between atoms: _42  and  _43
REMARK   15  A    between atoms: _45  and  _47
REMARK   16  A    between atoms: _47  and  _48
REMARK   17  A    between atoms: _50  and  _52
REMARK   18  A    between atoms: _52  and  _53
REMARK   19  A    between atoms: _52  and  _55
REMARK   20  A    between atoms: _55  and  _56
REMARK   21  A    between atoms: _58  and  _60
REMARK   22  A    between atoms: _60  and  _61
REMARK   23  A    between atoms: _60  and  _63
REMARK   24  A    between atoms: _66  and  _68
REMARK   25  A    between atoms: _68  and  _69
REMARK   26  A    between atoms: _68  and  _71
REMARK   27  A    between atoms: _73  and  _75
REMARK   28  A    between atoms: _75  and  _76
REMARK   29  A    between atoms: _79  and  _81
REMARK   30  A    between atoms: _81  and  _82
REMARK   31  A    between atoms: _81  and  _84
REMARK   32  A    between atoms: _84  and  _85
REMARK   33  A    between atoms: _85  and  _86
REMARK   34  A    between atoms: _86  and  _87
REMARK   35  A    between atoms: _96  and  _98
REMARK   36  A    between atoms: _98  and  _99
REMARK   37  A    between atoms: _98  and  _101
REMARK   38  A    between atoms: _104  and  _106
REMARK   39  A    between atoms: _106  and  _107
REMARK   40  A    between atoms: _110  and  _112
REMARK   41  A    between atoms: _112  and  _113
REMARK   42  A    between atoms: _112  and  _115
REMARK   43  A    between atoms: _118  and  _120
REMARK   44  A    between atoms: _120  and  _121
REMARK   45  A    between atoms: _120  and  _123
REMARK   46  A    between atoms: _123  and  _124
REMARK   47  A    between atoms: _124  and  _125
REMARK   48  A    between atoms: _125  and  _126
REMARK   49  A    between atoms: _126  and  _127
REMARK   50  A    between atoms: _131  and  _133
REMARK   51  A    between atoms: _133  and  _134
REMARK   52  A    between atoms: _133  and  _136
REMARK   53  A    between atoms: _136  and  _137
REMARK   54  A    between atoms: _137  and  _138
REMARK   55  A    between atoms: _138  and  _139
REMARK   56  A    between atoms: _139  and  _140
REMARK   57  A    between atoms: _144  and  _146
REMARK   58  A    between atoms: _146  and  _147
REMARK   59  A    between atoms: _146  and  _149
REMARK   60  A    between atoms: _149  and  _150
REMARK   61  A    between atoms: _153  and  _155
REMARK   62  A    between atoms: _155  and  _156
REMARK   63  A    between atoms: _155  and  _158
REMARK   64  A    between atoms: _158  and  _159
REMARK   65  A    between atoms: _159  and  _160
REMARK   66  A    between atoms: _160  and  _161
REMARK   67  A    between atoms: _170  and  _172
REMARK   68  A    between atoms: _172  and  _173
REMARK   69  A    between atoms: _172  and  _175
REMARK   70  A    between atoms: _175  and  _176
REMARK   71  A    between atoms: _176  and  _177
REMARK   72  A    between atoms: _177  and  _178
REMARK   73  A    between atoms: _187  and  _189
REMARK   74  A    between atoms: _189  and  _190
REMARK   75  A    between atoms: _189  and  _192
REMARK   76  A    between atoms: _192  and  _193
REMARK   77  A    between atoms: _193  and  _194
REMARK   78  A    between atoms: _197  and  _199
REMARK   79  A    between atoms: _199  and  _200
REMARK   80  A    between atoms: _199  and  _202
REMARK   81  A    between atoms: _202  and  _203
REMARK   82  A    between atoms: _206  and  _208
REMARK   83  A    between atoms: _208  and  _209
REMARK   84  A    between atoms: _208  and  _211
REMARK   85  A    between atoms: _211  and  _212
REMARK   86  A    between atoms: _212  and  _213
REMARK   87  A    between atoms: _213  and  _214
REMARK   88  A    between atoms: _223  and  _225
REMARK   89  A    between atoms: _225  and  _226
REMARK   90  A    between atoms: _225  and  _228
REMARK   91  A    between atoms: _228  and  _229
REMARK   92  A    between atoms: _232  and  _234
REMARK   93  A    between atoms: _234  and  _235
REMARK   94  A    between atoms: _234  and  _237
REMARK   95  A    between atoms: _237  and  _238
REMARK   96  A    between atoms: _241  and  _243
REMARK   97  A    between atoms: _243  and  _244
REMARK   98  A    between atoms: _243  and  _246
REMARK   99  A    between atoms: _246  and  _247
REMARK  100  A    between atoms: _247  and  _248
REMARK  101  A    between atoms: _248  and  _249
REMARK  102  A    between atoms: _249  and  _250
REMARK  103  A    between atoms: _254  and  _256
REMARK  104  A    between atoms: _256  and  _257
REMARK  105  A    between atoms: _256  and  _259
REMARK  106  A    between atoms: _259  and  _260
REMARK  107  A    between atoms: _260  and  _261
REMARK  108  A    between atoms: _263  and  _265
REMARK  109  A    between atoms: _265  and  _266
REMARK  110  A    between atoms: _265  and  _268
REMARK  111  A    between atoms: _271  and  _273
REMARK  112  A    between atoms: _273  and  _274
REMARK  113  A    between atoms: _273  and  _276
REMARK  114  A    between atoms: _276  and  _277
REMARK  115  A    between atoms: _280  and  _282
REMARK  116  A    between atoms: _282  and  _283
REMARK  117  A    between atoms: _285  and  _287
REMARK  118  A    between atoms: _287  and  _288
REMARK  119  A    between atoms: _287  and  _290
REMARK  120  A    between atoms: _290  and  _291
REMARK  121  A    between atoms: _294  and  _296
REMARK  122  A    between atoms: _296  and  _297
REMARK  123  A    between atoms: _296  and  _299
REMARK  124  A    between atoms: _299  and  _300
REMARK  125  A    between atoms: _303  and  _305
REMARK  126  A    between atoms: _305  and  _306
REMARK  127  A    between atoms: _305  and  _308
REMARK  128  A    between atoms: _308  and  _309
REMARK  129  A    between atoms: _312  and  _314
REMARK  130  A    between atoms: _314  and  _315
REMARK  131  A    between atoms: _314  and  _317
REMARK  132  A    between atoms: _317  and  _318
REMARK  133  A    between atoms: _323  and  _324
REMARK  134  A    between atoms: _326  and  _328
REMARK  135  A    between atoms: _328  and  _329
REMARK  136  A    between atoms: _328  and  _331
REMARK  137  A    between atoms: _331  and  _332
REMARK  138  A    between atoms: _335  and  _337
REMARK  139  A    between atoms: _337  and  _338
REMARK  140  A    between atoms: _337  and  _340
REMARK  141  A    between atoms: _343  and  _345
REMARK  142  A    between atoms: _345  and  _346
REMARK  143  A    between atoms: _345  and  _348
REMARK  144  A    between atoms: _348  and  _349
REMARK  145  A    between atoms: _352  and  _354
REMARK  146  A    between atoms: _354  and  _355
REMARK  147  A    between atoms: _354  and  _357
REMARK  148  A    between atoms: _357  and  _358
REMARK  149  A    between atoms: _363  and  _365
REMARK  150  A    between atoms: _365  and  _366
REMARK  151  A    between atoms: _365  and  _368
REMARK  152  A    between atoms: _368  and  _369
REMARK  153  A    between atoms: _372  and  _374
REMARK  154  A    between atoms: _374  and  _375
REMARK  155  A    between atoms: _374  and  _377
REMARK  156  A    between atoms: _377  and  _378
REMARK  157  A    between atoms: _378  and  _379
REMARK  158  A    between atoms: _381  and  _383
REMARK  159  A    between atoms: _383  and  _384
REMARK  160  A    between atoms: _386  and  _388
REMARK  161  A    between atoms: _388  and  _389
REMARK  162  A    between atoms: _392  and  _394
REMARK  163  A    between atoms: _394  and  _395
REMARK  164  A    between atoms: _394  and  _397
REMARK  165  A    between atoms: _397  and  _398
REMARK  166  A    between atoms: _401  and  _403
REMARK  167  A    between atoms: _403  and  _404
REMARK  168  A    between atoms: _403  and  _406
REMARK  169  A    between atoms: _406  and  _407
REMARK  170  A    between atoms: _410  and  _412
REMARK  171  A    between atoms: _412  and  _413
REMARK  172  A    between atoms: _412  and  _415
REMARK  173  A    between atoms: _415  and  _416
REMARK  174  A    between atoms: _421  and  _423
REMARK  175  A    between atoms: _423  and  _424
REMARK  176  A    between atoms: _423  and  _426
REMARK  177  A    between atoms: _426  and  _427
REMARK  178  A    between atoms: _432  and  _434
REMARK  179  A    between atoms: _434  and  _435
REMARK  180  A    between atoms: _434  and  _437
REMARK  181  A    between atoms: _437  and  _438
REMARK  182  A    between atoms: _441  and  _443
REMARK  183  A    between atoms: _443  and  _444
REMARK  184  A    between atoms: _443  and  _446
REMARK  185  A    between atoms: _446  and  _447
REMARK  186  A    between atoms: _450  and  _452
REMARK  187  A    between atoms: _452  and  _453
REMARK  188  A    between atoms: _452  and  _455
REMARK  189  A    between atoms: _455  and  _456
REMARK  190  A    between atoms: _461  and  _463
REMARK  191  A    between atoms: _463  and  _464
REMARK  192  A    between atoms: _463  and  _466
REMARK  193  A    between atoms: _466  and  _467
REMARK  194  A    between atoms: _469  and  _471
REMARK  195  A    between atoms: _471  and  _472
REMARK  196  A    between atoms: _471  and  _474
REMARK  197  A    between atoms: _474  and  _475
REMARK  198  A    between atoms: _480  and  _482
REMARK  199  A    between atoms: _482  and  _483
REMARK  200  A    between atoms: _482  and  _485
REMARK  201  A    between atoms: _485  and  _486
REMARK  202  A    between atoms: _489  and  _491
REMARK  203  A    between atoms: _491  and  _492
REMARK  204  A    between atoms: _495  and  _497
REMARK  205  A    between atoms: _497  and  _498
REMARK  206  A    between atoms: _497  and  _500
REMARK  207  A    between atoms: _503  and  _505
REMARK  208  A    between atoms: _505  and  _506
REMARK  209  A    between atoms: _505  and  _508
REMARK  210  A    between atoms: _508  and  _509
REMARK  211  A    between atoms: _509  and  _510
REMARK  212  A    between atoms: _510  and  _511
REMARK  213  A    between atoms: _511  and  _512
REMARK  214  A    between atoms: _516  and  _518
REMARK  215  A    between atoms: _518  and  _519
REMARK  216  A    between atoms: _518  and  _521
REMARK  217  A    between atoms: _521  and  _522
REMARK  218  A    between atoms: _525  and  _527
REMARK  219  A    between atoms: _527  and  _528
REMARK  220  A    between atoms: _527  and  _530
REMARK  221  A    between atoms: _530  and  _531
REMARK  222  A    between atoms: _534  and  _536
REMARK  223  A    between atoms: _536  and  _537
REMARK  224  A    between atoms: _536  and  _539
REMARK  225  A    between atoms: _539  and  _540
REMARK  226  A    between atoms: _543  and  _545
REMARK  227  A    between atoms: _545  and  _546
REMARK  228  A    between atoms: _545  and  _548
REMARK  229  A    between atoms: _548  and  _549
REMARK  230  A    between atoms: _555  and  _557
REMARK  231  A    between atoms: _557  and  _558
REMARK  232  A    between atoms: _560  and  _562
REMARK  233  A    between atoms: _562  and  _563
REMARK  234  A    between atoms: _562  and  _565
REMARK  235  A    between atoms: _565  and  _566
REMARK                            x       y       z     vdW  Elec       q    Type
REMARK                         _______ _______ _______ _____ _____    ______ ____
ROOT
ATOM      1  CA  MET A   7      46.649  38.770  33.751  0.00  0.00    +0.149 C 
ENDROOT
BRANCH   1   3
ATOM      2  C   LEU A   6      44.839  39.026  32.125  0.00  0.00    +0.241 C 
ATOM      3  N   MET A   7      45.565  38.271  32.932  0.00  0.00    -0.297 N 
ATOM      4  H   MET A   7      45.343  37.256  32.981  0.00  0.00    +0.150 HD
ATOM      5  O   LEU A   6      44.956  40.246  32.058  0.00  0.00    -0.273 OA
BRANCH   2   6
ATOM      6  CA  LEU A   6      43.802  38.309  31.305  0.00  0.00    +0.149 C 
BRANCH   6   9
ATOM      7  C   HIS A   5      41.689  38.058  32.479  0.00  0.00    +0.241 C 
ATOM      8  O   HIS A   5      41.783  36.838  32.525  0.00  0.00    -0.273 OA
ATOM      9  N   LEU A   6      42.569  38.830  31.855  0.00  0.00    -0.297 N 
ATOM     10  H   LEU A   6      42.366  39.845  31.758  0.00  0.00    +0.150 HD
BRANCH   7  11
ATOM     11  CA  HIS A   5      40.515  38.755  33.131  0.00  0.00    +0.155 C 
BRANCH  11  13
ATOM     12  C   THR A   4      38.864  37.349  32.054  0.00  0.00    +0.243 C 
ATOM     13  N   HIS A   5      39.420  37.813  33.175  0.00  0.00    -0.297 N 
ATOM     14  H   HIS A   5      39.059  37.491  34.096  0.00  0.00    +0.150 HD
ATOM     15  O   THR A   4      39.180  37.774  30.925  0.00  0.00    -0.273 OA
BRANCH  12  16
ATOM     16  CA  THR A   4      37.809  36.225  32.220  0.00  0.00    +0.176 C 
BRANCH  16  19
ATOM     17  C   VAL A   3      35.950  35.754  30.702  0.00  0.00    +0.241 C 
ATOM     18  O   VAL A   3      35.097  35.865  31.585  0.00  0.00    -0.273 OA
ATOM     19  N   THR A   4      37.250  35.901  30.919  0.00  0.00    -0.295 N 
ATOM     20  H   THR A   4      37.902  35.778  30.118  0.00  0.00    +0.150 HD
BRANCH  17  21
ATOM     21  CA  VAL A   3      35.547  35.440  29.267  0.00  0.00    +0.149 C 
BRANCH  21  23
ATOM     22  C   LEU A   2      35.060  33.174  28.530  0.00  0.00    +0.241 C 
ATOM     23  N   VAL A   3      34.676  34.253  29.207  0.00  0.00    -0.297 N 
ATOM     24  H   VAL A   3      33.758  34.259  29.696  0.00  0.00    +0.150 HD
ATOM     25  O   LEU A   2      36.152  33.112  27.942  0.00  0.00    -0.273 OA
BRANCH  22  26
ATOM     26  CA  LEU A   2      34.102  31.979  28.499  0.00  0.00    +0.149 C 
BRANCH  26  28
ATOM     27  C   TYR A   1      32.773  31.394  26.554  0.00  0.00    +0.239 C 
ATOM     28  N   LEU A   2      33.957  31.445  27.147  0.00  0.00    -0.297 N 
ATOM     29  H   LEU A   2      34.797  31.099  26.641  0.00  0.00    +0.150 HD
ATOM     30  O   TYR A   1      31.752  31.857  27.062  0.00  0.00    -0.274 OA
BRANCH  27  31
ATOM     31  CA  TYR A   1      32.733  30.767  25.173  0.00  0.00    +0.149 C 
BRANCH  31  32
ATOM     32  N   TYR A   1      31.600  29.882  25.052  0.00  0.00    -0.238 NA
ATOM     33  H   TYR A   1      30.642  30.269  25.170  0.00  0.00    +0.142 HD
ENDBRANCH  31  32
BRANCH  31  34
ATOM     34  CB  TYR A   1      32.638  31.862  24.136  0.00  0.00    +0.053 C 
BRANCH  34  35
ATOM     35  CG  TYR A   1      32.833  31.447  22.702  0.00  0.00    -0.020 A 
ATOM     36  CD2 TYR A   1      34.030  31.700  22.051  0.00  0.00    -0.001 A 
ATOM     37  CE2 TYR A   1      34.224  31.355  20.701  0.00  0.00    +0.036 A 
ATOM     38  CZ  TYR A   1      33.204  30.769  19.994  0.00  0.00    +0.134 A 
ATOM     39  CE1 TYR A   1      31.996  30.503  20.621  0.00  0.00    +0.036 A 
ATOM     40  CD1 TYR A   1      31.815  30.854  21.974  0.00  0.00    -0.001 A 
BRANCH  38  41
ATOM     41  OH  TYR A   1      33.410  30.441  18.662  0.00  0.00    -0.506 OA
ATOM     42  HH  TYR A   1      32.588  30.030  18.294  0.00  0.00    +0.292 HD
ENDBRANCH  38  41
ENDBRANCH  34  35
ENDBRANCH  31  34
ENDBRANCH  27  31
ENDBRANCH  26  28
BRANCH  26  43
ATOM     43  CB  LEU A   2      34.626  30.868  29.430  0.00  0.00    +0.029 C 
BRANCH  43  44
ATOM     44  CG  LEU A   2      33.795  29.578  29.519  0.00  0.00    +0.002 C 
ATOM     45  CD2 LEU A   2      32.485  29.873  30.212  0.00  0.00    +0.000 C 
ATOM     46  CD1 LEU A   2      34.540  28.436  30.203  0.00  0.00    +0.000 C 
ENDBRANCH  43  44
ENDBRANCH  26  43
ENDBRANCH  22  26
ENDBRANCH  21  23
BRANCH  21  47
ATOM     47  CB  VAL A   3      34.899  36.684  28.619  0.00  0.00    +0.027 C 
ATOM     48  CG2 VAL A   3      35.887  37.828  28.559  0.00  0.00    +0.002 C 
ATOM     49  CG1 VAL A   3      34.402  36.361  27.224  0.00  0.00    +0.002 C 
ENDBRANCH  21  47
ENDBRANCH  17  21
ENDBRANCH  16  19
BRANCH  16  50
ATOM     50  CB  THR A   4      38.535  34.989  32.847  0.00  0.00    +0.137 C 
ATOM     51  CG2 THR A   4      37.697  33.696  32.763  0.00  0.00    +0.034 C 
BRANCH  50  52
ATOM     52  OG1 THR A   4      39.788  34.793  32.179  0.00  0.00    -0.382 OA
ATOM     53  HG1 THR A   4      40.349  35.601  32.289  0.00  0.00    +0.210 HD
ENDBRANCH  50  52
ENDBRANCH  16  50
ENDBRANCH  12  16
ENDBRANCH  11  13
BRANCH  11  54
ATOM     54  CB  HIS A   5      40.918  39.176  34.547  0.00  0.00    +0.076 C 
BRANCH  54  55
ATOM     55  CG  HIS A   5      39.923  40.075  35.216  0.00  0.00    +0.082 A 
ATOM     56  CD2 HIS A   5      38.978  39.819  36.156  0.00  0.00    +0.115 A 
ATOM     57  NE2 HIS A   5      38.329  41.001  36.406  0.00  0.00    -0.221 NA
ATOM     58  CE1 HIS A   5      38.857  41.950  35.650  0.00  0.00    +0.199 A 
ATOM     59  ND1 HIS A   5      39.823  41.420  34.924  0.00  0.00    -0.227 NA
ENDBRANCH  54  55
ENDBRANCH  11  54
ENDBRANCH   7  11
ENDBRANCH   6   9
BRANCH   6  60
ATOM     60  CB  LEU A   6      43.952  38.671  29.823  0.00  0.00    +0.029 C 
BRANCH  60  61
ATOM     61  CG  LEU A   6      45.311  38.301  29.212  0.00  0.00    +0.002 C 
ATOM     62  CD2 LEU A   6      45.359  36.825  28.906  0.00  0.00    +0.000 C 
ATOM     63  CD1 LEU A   6      45.662  39.122  27.974  0.00  0.00    +0.000 C 
ENDBRANCH  60  61
ENDBRANCH   6  60
ENDBRANCH   2   6
ENDBRANCH   1   3
BRANCH   1  64
ATOM     64  C   MET A   7      47.874  38.527  32.876  0.00  0.00    +0.241 C 
ATOM     65  N   GLY A   8      48.808  39.466  32.881  0.00  0.00    -0.295 N 
ATOM     66  H   GLY A   8      48.733  40.260  33.549  0.00  0.00    +0.150 HD
ATOM     67  O   MET A   7      47.971  37.497  32.201  0.00  0.00    -0.273 OA
BRANCH  65  68
ATOM     68  CA  GLY A   8      49.940  39.402  31.963  0.00  0.00    +0.176 C 
BRANCH  68  69
ATOM     69  C   GLY A   8      50.901  38.230  32.044  0.00  0.00    +0.243 C 
ATOM     70  N   ALA A   9      50.961  37.558  33.193  0.00  0.00    -0.297 N 
ATOM     71  H   ALA A   9      50.305  37.806  33.961  0.00  0.00    +0.150 HD
ATOM     72  O   GLY A   8      51.625  37.981  31.086  0.00  0.00    -0.273 OA
BRANCH  70  73
ATOM     73  CA  ALA A   9      51.931  36.476  33.402  0.00  0.00    +0.149 C 
ATOM     74  CB  ALA A   9      53.282  37.059  33.836  0.00  0.00    +0.031 C 
BRANCH  73  75
ATOM     75  C   ALA A   9      51.465  35.422  34.418  0.00  0.00    +0.241 C 
ATOM     76  O   ALA A   9      50.475  35.623  35.117  0.00  0.00    -0.273 OA
ATOM     77  N   ASP A  10      52.167  34.292  34.497  0.00  0.00    -0.297 N 
ATOM     78  H   ASP A  10      52.936  34.105  33.823  0.00  0.00    +0.150 HD
BRANCH  77  79
ATOM     79  CA  ASP A  10      51.847  33.317  35.539  0.00  0.00    +0.160 C 
BRANCH  79  80
ATOM     80  C   ASP A  10      52.959  33.281  36.593  0.00  0.00    +0.241 C 
ATOM     81  N   LEU A  11      52.770  32.586  37.702  0.00  0.00    -0.297 N 
ATOM     82  H   LEU A  11      51.912  32.011  37.826  0.00  0.00    +0.150 HD
ATOM     83  O   ASP A  10      53.976  33.917  36.427  0.00  0.00    -0.273 OA
BRANCH  81  84
ATOM     84  CA  LEU A  11      53.781  32.638  38.746  0.00  0.00    +0.149 C 
BRANCH  84  85
ATOM     85  C   LEU A  11      55.040  31.895  38.315  0.00  0.00    +0.241 C 
ATOM     86  O   LEU A  11      56.127  32.135  38.830  0.00  0.00    -0.273 OA
ATOM     87  N   ASN A  12      54.876  30.993  37.358  0.00  0.00    -0.297 N 
ATOM     88  H   ASN A  12      53.928  30.859  36.953  0.00  0.00    +0.150 HD
BRANCH  87  89
ATOM     89  CA  ASN A  12      55.963  30.191  36.859  0.00  0.00    +0.158 C 
BRANCH  89  90
ATOM     90  C   ASN A  12      57.008  31.080  36.171  0.00  0.00    +0.241 C 
ATOM     91  O   ASN A  12      58.205  30.857  36.307  0.00  0.00    -0.273 OA
ATOM     92  N   ASN A  13      56.545  32.085  35.433  0.00  0.00    -0.297 N 
ATOM     93  H   ASN A  13      55.519  32.186  35.296  0.00  0.00    +0.150 HD
BRANCH  92  94
ATOM     94  CA  ASN A  13      57.443  33.045  34.814  0.00  0.00    +0.158 C 
BRANCH  94  95
ATOM     95  C   ASN A  13      58.004  34.048  35.808  0.00  0.00    +0.241 C 
ATOM     96  N   ILE A  14      57.268  34.326  36.869  0.00  0.00    -0.298 N 
ATOM     97  H   ILE A  14      56.317  33.913  36.955  0.00  0.00    +0.150 HD
ATOM     98  O   ASN A  13      59.096  34.544  35.630  0.00  0.00    -0.273 OA
BRANCH  96  99
ATOM     99  CA  ILE A  14      57.767  35.202  37.921  0.00  0.00    +0.137 C 
BRANCH  99 100
ATOM    100  C   ILE A  14      58.982  34.560  38.630  0.00  0.00    +0.227 C 
ATOM    101  O   ILE A  14      60.102  35.074  38.519  0.00  0.00    -0.286 OA
ENDBRANCH  99 100
BRANCH  99 102
ATOM    102  CB  ILE A  14      56.629  35.641  38.908  0.00  0.00    +0.026 C 
ATOM    103  CG2 ILE A  14      57.202  36.092  40.229  0.00  0.00    +0.002 C 
BRANCH 102 104
ATOM    104  CG1 ILE A  14      55.840  36.853  38.374  0.00  0.00    +0.002 C 
ATOM    105  CD1 ILE A  14      55.599  36.916  36.864  0.00  0.00    +0.000 C 
ENDBRANCH 102 104
ENDBRANCH  99 102
ENDBRANCH  96  99
ENDBRANCH  94  95
BRANCH  94 106
ATOM    106  CB  ASN A  13      56.785  33.731  33.625  0.00  0.00    +0.114 C 
BRANCH 106 107
ATOM    107  CG  ASN A  13      56.825  32.863  32.374  0.00  0.00    +0.222 C 
ATOM    108  ND2 ASN A  13      56.409  31.601  32.500  0.00  0.00    -0.329 N 
ATOM    109 HD21 ASN A  13      56.053  31.260  33.416  0.00  0.00    +0.145 HD
ATOM    110 HD22 ASN A  13      56.441  30.959  31.682  0.00  0.00    +0.145 HD
ATOM    111  OD1 ASN A  13      57.253  33.314  31.316  0.00  0.00    -0.275 OA
ENDBRANCH 106 107
ENDBRANCH  94 106
ENDBRANCH  92  94
ENDBRANCH  89  90
BRANCH  89 112
ATOM    112  CB  ASN A  12      55.409  29.145  35.893  0.00  0.00    +0.114 C 
BRANCH 112 113
ATOM    113  CG  ASN A  12      56.364  28.054  35.637  0.00  0.00    +0.222 C 
ATOM    114  OD1 ASN A  12      56.708  27.312  36.545  0.00  0.00    -0.275 OA
ATOM    115  ND2 ASN A  12      56.818  27.938  34.405  0.00  0.00    -0.329 N 
ATOM    116 HD21 ASN A  12      57.500  27.189  34.171  0.00  0.00    +0.145 HD
ATOM    117 HD22 ASN A  12      56.494  28.595  33.667  0.00  0.00    +0.145 HD
ENDBRANCH 112 113
ENDBRANCH  89 112
ENDBRANCH  87  89
ENDBRANCH  84  85
BRANCH  84 118
ATOM    118  CB  LEU A  11      53.239  32.076  40.052  0.00  0.00    +0.029 C 
BRANCH 118 119
ATOM    119  CG  LEU A  11      53.938  32.572  41.319  0.00  0.00    +0.002 C 
ATOM    120  CD2 LEU A  11      53.230  32.114  42.594  0.00  0.00    +0.000 C 
ATOM    121  CD1 LEU A  11      54.012  34.097  41.261  0.00  0.00    +0.000 C 
ENDBRANCH 118 119
ENDBRANCH  84 118
ENDBRANCH  81  84
ENDBRANCH  79  80
BRANCH  79 122
ATOM    122  CB  ASP A  10      51.480  31.949  34.958  0.00  0.00    +0.143 C 
BRANCH 122 123
ATOM    123  CG  ASP A  10      52.625  31.284  34.242  0.00  0.00    +0.367 C 
ATOM    124  OD2 ASP A  10      53.662  31.058  34.887  0.00  0.00    -0.246 OA
ATOM    125  OD1 ASP A  10      52.472  30.938  33.048  0.00  0.00    -0.246 OA
ENDBRANCH 122 123
ENDBRANCH  79 122
ENDBRANCH  77  79
ENDBRANCH  73  75
ENDBRANCH  70  73
ENDBRANCH  68  69
ENDBRANCH  65  68
ENDBRANCH   1  64
BRANCH   1 126
ATOM    126  CB  MET A   7      46.748  37.986  35.066  0.00  0.00    +0.041 C 
BRANCH 126 127
ATOM    127  CG  MET A   7      45.428  37.726  35.816  0.00  0.00    +0.060 C 
BRANCH 127 128
ATOM    128  SD  MET A   7      44.789  39.161  36.705  0.00  0.00    -0.139 S 
ATOM    129  CE  MET A   7      45.742  39.148  38.229  0.00  0.00    +0.069 C 
ENDBRANCH 127 128
ENDBRANCH 126 127
ENDBRANCH   1 126
TORSDOF 53
REMARK  Name = ../refined-set-2016/2zb1/2zb1_pocket.pdb
REMARK  235 active torsions:
REMARK  status: ('A' for Active; 'I' for Inactive)
REMARK    1  A    between atoms: _1  and  _3
REMARK    2  A    between atoms: _3  and  _4
REMARK    3  A    between atoms: _3  and  _6
REMARK    4  A    between atoms: _6  and  _7
REMARK    5  A    between atoms: _17  and  _19
REMARK    6  A    between atoms: _19  and  _20
REMARK    7  A    between atoms: _19  and  _22
REMARK    8  A    between atoms: _25  and  _27
REMARK    9  A    between atoms: _27  and  _28
REMARK   10  A    between atoms: _31  and  _33
REMARK   11  A    between atoms: _33  and  _34
REMARK   12  A    between atoms: _33  and  _36
REMARK   13  A    between atoms: _36  and  _37
REMARK   14  A    between atoms: _42  and  _43
REMARK   15  A    between atoms: _45  and  _47
REMARK   16  A    between atoms: _47  and  _48
REMARK   17  A    between atoms: _50  and  _52
REMARK   18  A    between atoms: _52  and  _53
REMARK   19  A    between atoms: _52  and  _55
REMARK   20  A    between atoms: _55  and  _56
REMARK   21  A    between atoms: _58  and  _60
REMARK   22  A    between atoms: _60  and  _61
REMARK   23  A    between atoms: _60  and  _63
REMARK   24  A    between atoms: _66  and  _68
REMARK   25  A    between atoms: _68  and  _69
REMARK   26  A    between atoms: _68  and  _71
REMARK   27  A    between atoms: _73  and  _75
REMARK   28  A    between atoms: _75  and  _76
REMARK   29  A    between atoms: _79  and  _81
REMARK   30  A    between atoms: _81  and  _82
REMARK   31  A    between atoms: _81  and  _84
REMARK   32  A    between atoms: _84  and  _85
REMARK   33  A    between atoms: _85  and  _86
REMARK   34  A    between atoms: _86  and  _87
REMARK   35  A    between atoms: _96  and  _98
REMARK   36  A    between atoms: _98  and  _99
REMARK   37  A    between atoms: _98  and  _101
REMARK   38  A    between atoms: _104  and  _106
REMARK   39  A    between atoms: _106  and  _107
REMARK   40  A    between atoms: _110  and  _112
REMARK   41  A    between atoms: _112  and  _113
REMARK   42  A    between atoms: _112  and  _115
REMARK   43  A    between atoms: _118  and  _120
REMARK   44  A    between atoms: _120  and  _121
REMARK   45  A    between atoms: _120  and  _123
REMARK   46  A    between atoms: _123  and  _124
REMARK   47  A    between atoms: _124  and  _125
REMARK   48  A    between atoms: _125  and  _126
REMARK   49  A    between atoms: _126  and  _127
REMARK   50  A    between atoms: _131  and  _133
REMARK   51  A    between atoms: _133  and  _134
REMARK   52  A    between atoms: _133  and  _136
REMARK   53  A    between atoms: _136  and  _137
REMARK   54  A    between atoms: _137  and  _138
REMARK   55  A    between atoms: _138  and  _139
REMARK   56  A    between atoms: _139  and  _140
REMARK   57  A    between atoms: _144  and  _146
REMARK   58  A    between atoms: _146  and  _147
REMARK   59  A    between atoms: _146  and  _149
REMARK   60  A    between atoms: _149  and  _150
REMARK   61  A    between atoms: _153  and  _155
REMARK   62  A    between atoms: _155  and  _156
REMARK   63  A    between atoms: _155  and  _158
REMARK   64  A    between atoms: _158  and  _159
REMARK   65  A    between atoms: _159  and  _160
REMARK   66  A    between atoms: _160  and  _161
REMARK   67  A    between atoms: _170  and  _172
REMARK   68  A    between atoms: _172  and  _173
REMARK   69  A    between atoms: _172  and  _175
REMARK   70  A    between atoms: _175  and  _176
REMARK   71  A    between atoms: _176  and  _177
REMARK   72  A    between atoms: _177  and  _178
REMARK   73  A    between atoms: _187  and  _189
REMARK   74  A    between atoms: _189  and  _190
REMARK   75  A    between atoms: _189  and  _192
REMARK   76  A    between atoms: _192  and  _193
REMARK   77  A    between atoms: _193  and  _194
REMARK   78  A    between atoms: _197  and  _199
REMARK   79  A    between atoms: _199  and  _200
REMARK   80  A    between atoms: _199  and  _202
REMARK   81  A    between atoms: _202  and  _203
REMARK   82  A    between atoms: _206  and  _208
REMARK   83  A    between atoms: _208  and  _209
REMARK   84  A    between atoms: _208  and  _211
REMARK   85  A    between atoms: _211  and  _212
REMARK   86  A    between atoms: _212  and  _213
REMARK   87  A    between atoms: _213  and  _214
REMARK   88  A    between atoms: _223  and  _225
REMARK   89  A    between atoms: _225  and  _226
REMARK   90  A    between atoms: _225  and  _228
REMARK   91  A    between atoms: _228  and  _229
REMARK   92  A    between atoms: _232  and  _234
REMARK   93  A    between atoms: _234  and  _235
REMARK   94  A    between atoms: _234  and  _237
REMARK   95  A    between atoms: _237  and  _238
REMARK   96  A    between atoms: _241  and  _243
REMARK   97  A    between atoms: _243  and  _244
REMARK   98  A    between atoms: _243  and  _246
REMARK   99  A    between atoms: _246  and  _247
REMARK  100  A    between atoms: _247  and  _248
REMARK  101  A    between atoms: _248  and  _249
REMARK  102  A    between atoms: _249  and  _250
REMARK  103  A    between atoms: _254  and  _256
REMARK  104  A    between atoms: _256  and  _257
REMARK  105  A    between atoms: _256  and  _259
REMARK  106  A    between atoms: _259  and  _260
REMARK  107  A    between atoms: _260  and  _261
REMARK  108  A    between atoms: _263  and  _265
REMARK  109  A    between atoms: _265  and  _266
REMARK  110  A    between atoms: _265  and  _268
REMARK  111  A    between atoms: _271  and  _273
REMARK  112  A    between atoms: _273  and  _274
REMARK  113  A    between atoms: _273  and  _276
REMARK  114  A    between atoms: _276  and  _277
REMARK  115  A    between atoms: _280  and  _282
REMARK  116  A    between atoms: _282  and  _283
REMARK  117  A    between atoms: _285  and  _287
REMARK  118  A    between atoms: _287  and  _288
REMARK  119  A    between atoms: _287  and  _290
REMARK  120  A    between atoms: _290  and  _291
REMARK  121  A    between atoms: _294  and  _296
REMARK  122  A    between atoms: _296  and  _297
REMARK  123  A    between atoms: _296  and  _299
REMARK  124  A    between atoms: _299  and  _300
REMARK  125  A    between atoms: _303  and  _305
REMARK  126  A    between atoms: _305  and  _306
REMARK  127  A    between atoms: _305  and  _308
REMARK  128  A    between atoms: _308  and  _309
REMARK  129  A    between atoms: _312  and  _314
REMARK  130  A    between atoms: _314  and  _315
REMARK  131  A    between atoms: _314  and  _317
REMARK  132  A    between atoms: _317  and  _318
REMARK  133  A    between atoms: _323  and  _324
REMARK  134  A    between atoms: _326  and  _328
REMARK  135  A    between atoms: _328  and  _329
REMARK  136  A    between atoms: _328  and  _331
REMARK  137  A    between atoms: _331  and  _332
REMARK  138  A    between atoms: _335  and  _337
REMARK  139  A    between atoms: _337  and  _338
REMARK  140  A    between atoms: _337  and  _340
REMARK  141  A    between atoms: _343  and  _345
REMARK  142  A    between atoms: _345  and  _346
REMARK  143  A    between atoms: _345  and  _348
REMARK  144  A    between atoms: _348  and  _349
REMARK  145  A    between atoms: _352  and  _354
REMARK  146  A    between atoms: _354  and  _355
REMARK  147  A    between atoms: _354  and  _357
REMARK  148  A    between atoms: _357  and  _358
REMARK  149  A    between atoms: _363  and  _365
REMARK  150  A    between atoms: _365  and  _366
REMARK  151  A    between atoms: _365  and  _368
REMARK  152  A    between atoms: _368  and  _369
REMARK  153  A    between atoms: _372  and  _374
REMARK  154  A    between atoms: _374  and  _375
REMARK  155  A    between atoms: _374  and  _377
REMARK  156  A    between atoms: _377  and  _378
REMARK  157  A    between atoms: _378  and  _379
REMARK  158  A    between atoms: _381  and  _383
REMARK  159  A    between atoms: _383  and  _384
REMARK  160  A    between atoms: _386  and  _388
REMARK  161  A    between atoms: _388  and  _389
REMARK  162  A    between atoms: _392  and  _394
REMARK  163  A    between atoms: _394  and  _395
REMARK  164  A    between atoms: _394  and  _397
REMARK  165  A    between atoms: _397  and  _398
REMARK  166  A    between atoms: _401  and  _403
REMARK  167  A    between atoms: _403  and  _404
REMARK  168  A    between atoms: _403  and  _406
REMARK  169  A    between atoms: _406  and  _407
REMARK  170  A    between atoms: _410  and  _412
REMARK  171  A    between atoms: _412  and  _413
REMARK  172  A    between atoms: _412  and  _415
REMARK  173  A    between atoms: _415  and  _416
REMARK  174  A    between atoms: _421  and  _423
REMARK  175  A    between atoms: _423  and  _424
REMARK  176  A    between atoms: _423  and  _426
REMARK  177  A    between atoms: _426  and  _427
REMARK  178  A    between atoms: _432  and  _434
REMARK  179  A    between atoms: _434  and  _435
REMARK  180  A    between atoms: _434  and  _437
REMARK  181  A    between atoms: _437  and  _438
REMARK  182  A    between atoms: _441  and  _443
REMARK  183  A    between atoms: _443  and  _444
REMARK  184  A    between atoms: _443  and  _446
REMARK  185  A    between atoms: _446  and  _447
REMARK  186  A    between atoms: _450  and  _452
REMARK  187  A    between atoms: _452  and  _453
REMARK  188  A    between atoms: _452  and  _455
REMARK  189  A    between atoms: _455  and  _456
REMARK  190  A    between atoms: _461  and  _463
REMARK  191  A    between atoms: _463  and  _464
REMARK  192  A    between atoms: _463  and  _466
REMARK  193  A    between atoms: _466  and  _467
REMARK  194  A    between atoms: _469  and  _471
REMARK  195  A    between atoms: _471  and  _472
REMARK  196  A    between atoms: _471  and  _474
REMARK  197  A    between atoms: _474  and  _475
REMARK  198  A    between atoms: _480  and  _482
REMARK  199  A    between atoms: _482  and  _483
REMARK  200  A    between atoms: _482  and  _485
REMARK  201  A    between atoms: _485  and  _486
REMARK  202  A    between atoms: _489  and  _491
REMARK  203  A    between atoms: _491  and  _492
REMARK  204  A    between atoms: _495  and  _497
REMARK  205  A    between atoms: _497  and  _498
REMARK  206  A    between atoms: _497  and  _500
REMARK  207  A    between atoms: _503  and  _505
REMARK  208  A    between atoms: _505  and  _506
REMARK  209  A    between atoms: _505  and  _508
REMARK  210  A    between atoms: _508  and  _509
REMARK  211  A    between atoms: _509  and  _510
REMARK  212  A    between atoms: _510  and  _511
REMARK  213  A    between atoms: _511  and  _512
REMARK  214  A    between atoms: _516  and  _518
REMARK  215  A    between atoms: _518  and  _519
REMARK  216  A    between atoms: _518  and  _521
REMARK  217  A    between atoms: _521  and  _522
REMARK  218  A    between atoms: _525  and  _527
REMARK  219  A    between atoms: _527  and  _528
REMARK  220  A    between atoms: _527  and  _530
REMARK  221  A    between atoms: _530  and  _531
REMARK  222  A    between atoms: _534  and  _536
REMARK  223  A    between atoms: _536  and  _537
REMARK  224  A    between atoms: _536  and  _539
REMARK  225  A    between atoms: _539  and  _540
REMARK  226  A    between atoms: _543  and  _545
REMARK  227  A    between atoms: _545  and  _546
REMARK  228  A    between atoms: _545  and  _548
REMARK  229  A    between atoms: _548  and  _549
REMARK  230  A    between atoms: _555  and  _557
REMARK  231  A    between atoms: _557  and  _558
REMARK  232  A    between atoms: _560  and  _562
REMARK  233  A    between atoms: _562  and  _563
REMARK  234  A    between atoms: _562  and  _565
REMARK  235  A    between atoms: _565  and  _566
REMARK                            x       y       z     vdW  Elec       q    Type
REMARK                         _______ _______ _______ _____ _____    ______ ____
ROOT
ATOM      1  CA  ILE A   1      35.529  23.326  46.416  0.00  0.00    +0.133 C 
ENDROOT
BRANCH   1   2
ATOM      2  N   ILE A   1      34.910  23.631  47.692  0.00  0.00    -0.239 NA
ATOM      3  H   ILE A   1      35.135  24.535  48.155  0.00  0.00    +0.142 HD
ENDBRANCH   1   2
BRANCH   1   4
ATOM      4  C   ILE A   1      36.995  23.105  46.715  0.00  0.00    +0.224 C 
ATOM      5  O   ILE A   1      37.571  23.823  47.534  0.00  0.00    -0.287 OA
ENDBRANCH   1   4
BRANCH   1   6
ATOM      6  CB  ILE A   1      35.361  24.495  45.429  0.00  0.00    +0.023 C 
ATOM      7  CG2 ILE A   1      36.119  24.244  44.146  0.00  0.00    +0.002 C 
BRANCH   6   8
ATOM      8  CG1 ILE A   1      33.890  24.699  45.103  0.00  0.00    +0.002 C 
ATOM      9  CD1 ILE A   1      33.557  26.102  44.581  0.00  0.00    +0.000 C 
ENDBRANCH   6   8
ENDBRANCH   1   6
TORSDOF 4
REMARK  Name = ../refined-set-2016/2zb1/2zb1_pocket.pdb
REMARK  235 active torsions:
REMARK  status: ('A' for Active; 'I' for Inactive)
REMARK    1  A    between atoms: _1  and  _3
REMARK    2  A    between atoms: _3  and  _4
REMARK    3  A    between atoms: _3  and  _6
REMARK    4  A    between atoms: _6  and  _7
REMARK    5  A    between atoms: _17  and  _19
REMARK    6  A    between atoms: _19  and  _20
REMARK    7  A    between atoms: _19  and  _22
REMARK    8  A    between atoms: _25  and  _27
REMARK    9  A    between atoms: _27  and  _28
REMARK   10  A    between atoms: _31  and  _33
REMARK   11  A    between atoms: _33  and  _34
REMARK   12  A    between atoms: _33  and  _36
REMARK   13  A    between atoms: _36  and  _37
REMARK   14  A    between atoms: _42  and  _43
REMARK   15  A    between atoms: _45  and  _47
REMARK   16  A    between atoms: _47  and  _48
REMARK   17  A    between atoms: _50  and  _52
REMARK   18  A    between atoms: _52  and  _53
REMARK   19  A    between atoms: _52  and  _55
REMARK   20  A    between atoms: _55  and  _56
REMARK   21  A    between atoms: _58  and  _60
REMARK   22  A    between atoms: _60  and  _61
REMARK   23  A    between atoms: _60  and  _63
REMARK   24  A    between atoms: _66  and  _68
REMARK   25  A    between atoms: _68  and  _69
REMARK   26  A    between atoms: _68  and  _71
REMARK   27  A    between atoms: _73  and  _75
REMARK   28  A    between atoms: _75  and  _76
REMARK   29  A    between atoms: _79  and  _81
REMARK   30  A    between atoms: _81  and  _82
REMARK   31  A    between atoms: _81  and  _84
REMARK   32  A    between atoms: _84  and  _85
REMARK   33  A    between atoms: _85  and  _86
REMARK   34  A    between atoms: _86  and  _87
REMARK   35  A    between atoms: _96  and  _98
REMARK   36  A    between atoms: _98  and  _99
REMARK   37  A    between atoms: _98  and  _101
REMARK   38  A    between atoms: _104  and  _106
REMARK   39  A    between atoms: _106  and  _107
REMARK   40  A    between atoms: _110  and  _112
REMARK   41  A    between atoms: _112  and  _113
REMARK   42  A    between atoms: _112  and  _115
REMARK   43  A    between atoms: _118  and  _120
REMARK   44  A    between atoms: _120  and  _121
REMARK   45  A    between atoms: _120  and  _123
REMARK   46  A    between atoms: _123  and  _124
REMARK   47  A    between atoms: _124  and  _125
REMARK   48  A    between atoms: _125  and  _126
REMARK   49  A    between atoms: _126  and  _127
REMARK   50  A    between atoms: _131  and  _133
REMARK   51  A    between atoms: _133  and  _134
REMARK   52  A    between atoms: _133  and  _136
REMARK   53  A    between atoms: _136  and  _137
REMARK   54  A    between atoms: _137  and  _138
REMARK   55  A    between atoms: _138  and  _139
REMARK   56  A    between atoms: _139  and  _140
REMARK   57  A    between atoms: _144  and  _146
REMARK   58  A    between atoms: _146  and  _147
REMARK   59  A    between atoms: _146  and  _149
REMARK   60  A    between atoms: _149  and  _150
REMARK   61  A    between atoms: _153  and  _155
REMARK   62  A    between atoms: _155  and  _156
REMARK   63  A    between atoms: _155  and  _158
REMARK   64  A    between atoms: _158  and  _159
REMARK   65  A    between atoms: _159  and  _160
REMARK   66  A    between atoms: _160  and  _161
REMARK   67  A    between atoms: _170  and  _172
REMARK   68  A    between atoms: _172  and  _173
REMARK   69  A    between atoms: _172  and  _175
REMARK   70  A    between atoms: _175  and  _176
REMARK   71  A    between atoms: _176  and  _177
REMARK   72  A    between atoms: _177  and  _178
REMARK   73  A    between atoms: _187  and  _189
REMARK   74  A    between atoms: _189  and  _190
REMARK   75  A    between atoms: _189  and  _192
REMARK   76  A    between atoms: _192  and  _193
REMARK   77  A    between atoms: _193  and  _194
REMARK   78  A    between atoms: _197  and  _199
REMARK   79  A    between atoms: _199  and  _200
REMARK   80  A    between atoms: _199  and  _202
REMARK   81  A    between atoms: _202  and  _203
REMARK   82  A    between atoms: _206  and  _208
REMARK   83  A    between atoms: _208  and  _209
REMARK   84  A    between atoms: _208  and  _211
REMARK   85  A    between atoms: _211  and  _212
REMARK   86  A    between atoms: _212  and  _213
REMARK   87  A    between atoms: _213  and  _214
REMARK   88  A    between atoms: _223  and  _225
REMARK   89  A    between atoms: _225  and  _226
REMARK   90  A    between atoms: _225  and  _228
REMARK   91  A    between atoms: _228  and  _229
REMARK   92  A    between atoms: _232  and  _234
REMARK   93  A    between atoms: _234  and  _235
REMARK   94  A    between atoms: _234  and  _237
REMARK   95  A    between atoms: _237  and  _238
REMARK   96  A    between atoms: _241  and  _243
REMARK   97  A    between atoms: _243  and  _244
REMARK   98  A    between atoms: _243  and  _246
REMARK   99  A    between atoms: _246  and  _247
REMARK  100  A    between atoms: _247  and  _248
REMARK  101  A    between atoms: _248  and  _249
REMARK  102  A    between atoms: _249  and  _250
REMARK  103  A    between atoms: _254  and  _256
REMARK  104  A    between atoms: _256  and  _257
REMARK  105  A    between atoms: _256  and  _259
REMARK  106  A    between atoms: _259  and  _260
REMARK  107  A    between atoms: _260  and  _261
REMARK  108  A    between atoms: _263  and  _265
REMARK  109  A    between atoms: _265  and  _266
REMARK  110  A    between atoms: _265  and  _268
REMARK  111  A    between atoms: _271  and  _273
REMARK  112  A    between atoms: _273  and  _274
REMARK  113  A    between atoms: _273  and  _276
REMARK  114  A    between atoms: _276  and  _277
REMARK  115  A    between atoms: _280  and  _282
REMARK  116  A    between atoms: _282  and  _283
REMARK  117  A    between atoms: _285  and  _287
REMARK  118  A    between atoms: _287  and  _288
REMARK  119  A    between atoms: _287  and  _290
REMARK  120  A    between atoms: _290  and  _291
REMARK  121  A    between atoms: _294  and  _296
REMARK  122  A    between atoms: _296  and  _297
REMARK  123  A    between atoms: _296  and  _299
REMARK  124  A    between atoms: _299  and  _300
REMARK  125  A    between atoms: _303  and  _305
REMARK  126  A    between atoms: _305  and  _306
REMARK  127  A    between atoms: _305  and  _308
REMARK  128  A    between atoms: _308  and  _309
REMARK  129  A    between atoms: _312  and  _314
REMARK  130  A    between atoms: _314  and  _315
REMARK  131  A    between atoms: _314  and  _317
REMARK  132  A    between atoms: _317  and  _318
REMARK  133  A    between atoms: _323  and  _324
REMARK  134  A    between atoms: _326  and  _328
REMARK  135  A    between atoms: _328  and  _329
REMARK  136  A    between atoms: _328  and  _331
REMARK  137  A    between atoms: _331  and  _332
REMARK  138  A    between atoms: _335  and  _337
REMARK  139  A    between atoms: _337  and  _338
REMARK  140  A    between atoms: _337  and  _340
REMARK  141  A    between atoms: _343  and  _345
REMARK  142  A    between atoms: _345  and  _346
REMARK  143  A    between atoms: _345  and  _348
REMARK  144  A    between atoms: _348  and  _349
REMARK  145  A    between atoms: _352  and  _354
REMARK  146  A    between atoms: _354  and  _355
REMARK  147  A    between atoms: _354  and  _357
REMARK  148  A    between atoms: _357  and  _358
REMARK  149  A    between atoms: _363  and  _365
REMARK  150  A    between atoms: _365  and  _366
REMARK  151  A    between atoms: _365  and  _368
REMARK  152  A    between atoms: _368  and  _369
REMARK  153  A    between atoms: _372  and  _374
REMARK  154  A    between atoms: _374  and  _375
REMARK  155  A    between atoms: _374  and  _377
REMARK  156  A    between atoms: _377  and  _378
REMARK  157  A    between atoms: _378  and  _379
REMARK  158  A    between atoms: _381  and  _383
REMARK  159  A    between atoms: _383  and  _384
REMARK  160  A    between atoms: _386  and  _388
REMARK  161  A    between atoms: _388  and  _389
REMARK  162  A    between atoms: _392  and  _394
REMARK  163  A    between atoms: _394  and  _395
REMARK  164  A    between atoms: _394  and  _397
REMARK  165  A    between atoms: _397  and  _398
REMARK  166  A    between atoms: _401  and  _403
REMARK  167  A    between atoms: _403  and  _404
REMARK  168  A    between atoms: _403  and  _406
REMARK  169  A    between atoms: _406  and  _407
REMARK  170  A    between atoms: _410  and  _412
REMARK  171  A    between atoms: _412  and  _413
REMARK  172  A    between atoms: _412  and  _415
REMARK  173  A    between atoms: _415  and  _416
REMARK  174  A    between atoms: _421  and  _423
REMARK  175  A    between atoms: _423  and  _424
REMARK  176  A    between atoms: _423  and  _426
REMARK  177  A    between atoms: _426  and  _427
REMARK  178  A    between atoms: _432  and  _434
REMARK  179  A    between atoms: _434  and  _435
REMARK  180  A    between atoms: _434  and  _437
REMARK  181  A    between atoms: _437  and  _438
REMARK  182  A    between atoms: _441  and  _443
REMARK  183  A    between atoms: _443  and  _444
REMARK  184  A    between atoms: _443  and  _446
REMARK  185  A    between atoms: _446  and  _447
REMARK  186  A    between atoms: _450  and  _452
REMARK  187  A    between atoms: _452  and  _453
REMARK  188  A    between atoms: _452  and  _455
REMARK  189  A    between atoms: _455  and  _456
REMARK  190  A    between atoms: _461  and  _463
REMARK  191  A    between atoms: _463  and  _464
REMARK  192  A    between atoms: _463  and  _466
REMARK  193  A    between atoms: _466  and  _467
REMARK  194  A    between atoms: _469  and  _471
REMARK  195  A    between atoms: _471  and  _472
REMARK  196  A    between atoms: _471  and  _474
REMARK  197  A    between atoms: _474  and  _475
REMARK  198  A    between atoms: _480  and  _482
REMARK  199  A    between atoms: _482  and  _483
REMARK  200  A    between atoms: _482  and  _485
REMARK  201  A    between atoms: _485  and  _486
REMARK  202  A    between atoms: _489  and  _491
REMARK  203  A    between atoms: _491  and  _492
REMARK  204  A    between atoms: _495  and  _497
REMARK  205  A    between atoms: _497  and  _498
REMARK  206  A    between atoms: _497  and  _500
REMARK  207  A    between atoms: _503  and  _505
REMARK  208  A    between atoms: _505  and  _506
REMARK  209  A    between atoms: _505  and  _508
REMARK  210  A    between atoms: _508  and  _509
REMARK  211  A    between atoms: _509  and  _510
REMARK  212  A    between atoms: _510  and  _511
REMARK  213  A    between atoms: _511  and  _512
REMARK  214  A    between atoms: _516  and  _518
REMARK  215  A    between atoms: _518  and  _519
REMARK  216  A    between atoms: _518  and  _521
REMARK  217  A    between atoms: _521  and  _522
REMARK  218  A    between atoms: _525  and  _527
REMARK  219  A    between atoms: _527  and  _528
REMARK  220  A    between atoms: _527  and  _530
REMARK  221  A    between atoms: _530  and  _531
REMARK  222  A    between atoms: _534  and  _536
REMARK  223  A    between atoms: _536  and  _537
REMARK  224  A    between atoms: _536  and  _539
REMARK  225  A    between atoms: _539  and  _540
REMARK  226  A    between atoms: _543  and  _545
REMARK  227  A    between atoms: _545  and  _546
REMARK  228  A    between atoms: _545  and  _548
REMARK  229  A    between atoms: _548  and  _549
REMARK  230  A    between atoms: _555  and  _557
REMARK  231  A    between atoms: _557  and  _558
REMARK  232  A    between atoms: _560  and  _562
REMARK  233  A    between atoms: _562  and  _563
REMARK  234  A    between atoms: _562  and  _565
REMARK  235  A    between atoms: _565  and  _566
REMARK                            x       y       z     vdW  Elec       q    Type
REMARK                         _______ _______ _______ _____ _____    ______ ____
ROOT
ATOM      1  CB  HIS A   1      42.435  24.226  43.652  0.00  0.00    +0.072 C 
ENDROOT
BRANCH   1   2
ATOM      2  CG  HIS A   1      42.975  24.711  42.344  0.00  0.00    +0.082 A 
ATOM      3  CD2 HIS A   1      42.831  25.894  41.703  0.00  0.00    +0.115 A 
ATOM      4  NE2 HIS A   1      43.519  25.794  40.519  0.00  0.00    -0.221 NA
ATOM      5  CE1 HIS A   1      44.057  24.593  40.431  0.00  0.00    +0.199 A 
ATOM      6  ND1 HIS A   1      43.746  23.918  41.520  0.00  0.00    -0.227 NA
ENDBRANCH   1   2
BRANCH   1   7
ATOM      7  CA  HIS A   1      41.340  23.171  43.491  0.00  0.00    +0.139 C 
BRANCH   7   8
ATOM      8  N   HIS A   1      40.673  22.891  44.762  0.00  0.00    -0.239 NA
ATOM      9  H   HIS A   1      41.015  23.349  45.631  0.00  0.00    +0.142 HD
ENDBRANCH   7   8
BRANCH   7  10
ATOM     10  C   HIS A   1      41.939  21.899  42.881  0.00  0.00    +0.224 C 
ATOM     11  O   HIS A   1      41.686  21.594  41.710  0.00  0.00    -0.287 OA
ENDBRANCH   7  10
ENDBRANCH   1   7
TORSDOF 4
REMARK  Name = ../refined-set-2016/2zb1/2zb1_pocket.pdb
REMARK  235 active torsions:
REMARK  status: ('A' for Active; 'I' for Inactive)
REMARK    1  A    between atoms: _1  and  _3
REMARK    2  A    between atoms: _3  and  _4
REMARK    3  A    between atoms: _3  and  _6
REMARK    4  A    between atoms: _6  and  _7
REMARK    5  A    between atoms: _17  and  _19
REMARK    6  A    between atoms: _19  and  _20
REMARK    7  A    between atoms: _19  and  _22
REMARK    8  A    between atoms: _25  and  _27
REMARK    9  A    between atoms: _27  and  _28
REMARK   10  A    between atoms: _31  and  _33
REMARK   11  A    between atoms: _33  and  _34
REMARK   12  A    between atoms: _33  and  _36
REMARK   13  A    between atoms: _36  and  _37
REMARK   14  A    between atoms: _42  and  _43
REMARK   15  A    between atoms: _45  and  _47
REMARK   16  A    between atoms: _47  and  _48
REMARK   17  A    between atoms: _50  and  _52
REMARK   18  A    between atoms: _52  and  _53
REMARK   19  A    between atoms: _52  and  _55
REMARK   20  A    between atoms: _55  and  _56
REMARK   21  A    between atoms: _58  and  _60
REMARK   22  A    between atoms: _60  and  _61
REMARK   23  A    between atoms: _60  and  _63
REMARK   24  A    between atoms: _66  and  _68
REMARK   25  A    between atoms: _68  and  _69
REMARK   26  A    between atoms: _68  and  _71
REMARK   27  A    between atoms: _73  and  _75
REMARK   28  A    between atoms: _75  and  _76
REMARK   29  A    between atoms: _79  and  _81
REMARK   30  A    between atoms: _81  and  _82
REMARK   31  A    between atoms: _81  and  _84
REMARK   32  A    between atoms: _84  and  _85
REMARK   33  A    between atoms: _85  and  _86
REMARK   34  A    between atoms: _86  and  _87
REMARK   35  A    between atoms: _96  and  _98
REMARK   36  A    between atoms: _98  and  _99
REMARK   37  A    between atoms: _98  and  _101
REMARK   38  A    between atoms: _104  and  _106
REMARK   39  A    between atoms: _106  and  _107
REMARK   40  A    between atoms: _110  and  _112
REMARK   41  A    between atoms: _112  and  _113
REMARK   42  A    between atoms: _112  and  _115
REMARK   43  A    between atoms: _118  and  _120
REMARK   44  A    between atoms: _120  and  _121
REMARK   45  A    between atoms: _120  and  _123
REMARK   46  A    between atoms: _123  and  _124
REMARK   47  A    between atoms: _124  and  _125
REMARK   48  A    between atoms: _125  and  _126
REMARK   49  A    between atoms: _126  and  _127
REMARK   50  A    between atoms: _131  and  _133
REMARK   51  A    between atoms: _133  and  _134
REMARK   52  A    between atoms: _133  and  _136
REMARK   53  A    between atoms: _136  and  _137
REMARK   54  A    between atoms: _137  and  _138
REMARK   55  A    between atoms: _138  and  _139
REMARK   56  A    between atoms: _139  and  _140
REMARK   57  A    between atoms: _144  and  _146
REMARK   58  A    between atoms: _146  and  _147
REMARK   59  A    between atoms: _146  and  _149
REMARK   60  A    between atoms: _149  and  _150
REMARK   61  A    between atoms: _153  and  _155
REMARK   62  A    between atoms: _155  and  _156
REMARK   63  A    between atoms: _155  and  _158
REMARK   64  A    between atoms: _158  and  _159
REMARK   65  A    between atoms: _159  and  _160
REMARK   66  A    between atoms: _160  and  _161
REMARK   67  A    between atoms: _170  and  _172
REMARK   68  A    between atoms: _172  and  _173
REMARK   69  A    between atoms: _172  and  _175
REMARK   70  A    between atoms: _175  and  _176
REMARK   71  A    between atoms: _176  and  _177
REMARK   72  A    between atoms: _177  and  _178
REMARK   73  A    between atoms: _187  and  _189
REMARK   74  A    between atoms: _189  and  _190
REMARK   75  A    between atoms: _189  and  _192
REMARK   76  A    between atoms: _192  and  _193
REMARK   77  A    between atoms: _193  and  _194
REMARK   78  A    between atoms: _197  and  _199
REMARK   79  A    between atoms: _199  and  _200
REMARK   80  A    between atoms: _199  and  _202
REMARK   81  A    between atoms: _202  and  _203
REMARK   82  A    between atoms: _206  and  _208
REMARK   83  A    between atoms: _208  and  _209
REMARK   84  A    between atoms: _208  and  _211
REMARK   85  A    between atoms: _211  and  _212
REMARK   86  A    between atoms: _212  and  _213
REMARK   87  A    between atoms: _213  and  _214
REMARK   88  A    between atoms: _223  and  _225
REMARK   89  A    between atoms: _225  and  _226
REMARK   90  A    between atoms: _225  and  _228
REMARK   91  A    between atoms: _228  and  _229
REMARK   92  A    between atoms: _232  and  _234
REMARK   93  A    between atoms: _234  and  _235
REMARK   94  A    between atoms: _234  and  _237
REMARK   95  A    between atoms: _237  and  _238
REMARK   96  A    between atoms: _241  and  _243
REMARK   97  A    between atoms: _243  and  _244
REMARK   98  A    between atoms: _243  and  _246
REMARK   99  A    between atoms: _246  and  _247
REMARK  100  A    between atoms: _247  and  _248
REMARK  101  A    between atoms: _248  and  _249
REMARK  102  A    between atoms: _249  and  _250
REMARK  103  A    between atoms: _254  and  _256
REMARK  104  A    between atoms: _256  and  _257
REMARK  105  A    between atoms: _256  and  _259
REMARK  106  A    between atoms: _259  and  _260
REMARK  107  A    between atoms: _260  and  _261
REMARK  108  A    between atoms: _263  and  _265
REMARK  109  A    between atoms: _265  and  _266
REMARK  110  A    between atoms: _265  and  _268
REMARK  111  A    between atoms: _271  and  _273
REMARK  112  A    between atoms: _273  and  _274
REMARK  113  A    between atoms: _273  and  _276
REMARK  114  A    between atoms: _276  and  _277
REMARK  115  A    between atoms: _280  and  _282
REMARK  116  A    between atoms: _282  and  _283
REMARK  117  A    between atoms: _285  and  _287
REMARK  118  A    between atoms: _287  and  _288
REMARK  119  A    between atoms: _287  and  _290
REMARK  120  A    between atoms: _290  and  _291
REMARK  121  A    between atoms: _294  and  _296
REMARK  122  A    between atoms: _296  and  _297
REMARK  123  A    between atoms: _296  and  _299
REMARK  124  A    between atoms: _299  and  _300
REMARK  125  A    between atoms: _303  and  _305
REMARK  126  A    between atoms: _305  and  _306
REMARK  127  A    between atoms: _305  and  _308
REMARK  128  A    between atoms: _308  and  _309
REMARK  129  A    between atoms: _312  and  _314
REMARK  130  A    between atoms: _314  and  _315
REMARK  131  A    between atoms: _314  and  _317
REMARK  132  A    between atoms: _317  and  _318
REMARK  133  A    between atoms: _323  and  _324
REMARK  134  A    between atoms: _326  and  _328
REMARK  135  A    between atoms: _328  and  _329
REMARK  136  A    between atoms: _328  and  _331
REMARK  137  A    between atoms: _331  and  _332
REMARK  138  A    between atoms: _335  and  _337
REMARK  139  A    between atoms: _337  and  _338
REMARK  140  A    between atoms: _337  and  _340
REMARK  141  A    between atoms: _343  and  _345
REMARK  142  A    between atoms: _345  and  _346
REMARK  143  A    between atoms: _345  and  _348
REMARK  144  A    between atoms: _348  and  _349
REMARK  145  A    between atoms: _352  and  _354
REMARK  146  A    between atoms: _354  and  _355
REMARK  147  A    between atoms: _354  and  _357
REMARK  148  A    between atoms: _357  and  _358
REMARK  149  A    between atoms: _363  and  _365
REMARK  150  A    between atoms: _365  and  _366
REMARK  151  A    between atoms: _365  and  _368
REMARK  152  A    between atoms: _368  and  _369
REMARK  153  A    between atoms: _372  and  _374
REMARK  154  A    between atoms: _374  and  _375
REMARK  155  A    between atoms: _374  and  _377
REMARK  156  A    between atoms: _377  and  _378
REMARK  157  A    between atoms: _378  and  _379
REMARK  158  A    between atoms: _381  and  _383
REMARK  159  A    between atoms: _383  and  _384
REMARK  160  A    between atoms: _386  and  _388
REMARK  161  A    between atoms: _388  and  _389
REMARK  162  A    between atoms: _392  and  _394
REMARK  163  A    between atoms: _394  and  _395
REMARK  164  A    between atoms: _394  and  _397
REMARK  165  A    between atoms: _397  and  _398
REMARK  166  A    between atoms: _401  and  _403
REMARK  167  A    between atoms: _403  and  _404
REMARK  168  A    between atoms: _403  and  _406
REMARK  169  A    between atoms: _406  and  _407
REMARK  170  A    between atoms: _410  and  _412
REMARK  171  A    between atoms: _412  and  _413
REMARK  172  A    between atoms: _412  and  _415
REMARK  173  A    between atoms: _415  and  _416
REMARK  174  A    between atoms: _421  and  _423
REMARK  175  A    between atoms: _423  and  _424
REMARK  176  A    between atoms: _423  and  _426
REMARK  177  A    between atoms: _426  and  _427
REMARK  178  A    between atoms: _432  and  _434
REMARK  179  A    between atoms: _434  and  _435
REMARK  180  A    between atoms: _434  and  _437
REMARK  181  A    between atoms: _437  and  _438
REMARK  182  A    between atoms: _441  and  _443
REMARK  183  A    between atoms: _443  and  _444
REMARK  184  A    between atoms: _443  and  _446
REMARK  185  A    between atoms: _446  and  _447
REMARK  186  A    between atoms: _450  and  _452
REMARK  187  A    between atoms: _452  and  _453
REMARK  188  A    between atoms: _452  and  _455
REMARK  189  A    between atoms: _455  and  _456
REMARK  190  A    between atoms: _461  and  _463
REMARK  191  A    between atoms: _463  and  _464
REMARK  192  A    between atoms: _463  and  _466
REMARK  193  A    between atoms: _466  and  _467
REMARK  194  A    between atoms: _469  and  _471
REMARK  195  A    between atoms: _471  and  _472
REMARK  196  A    between atoms: _471  and  _474
REMARK  197  A    between atoms: _474  and  _475
REMARK  198  A    between atoms: _480  and  _482
REMARK  199  A    between atoms: _482  and  _483
REMARK  200  A    between atoms: _482  and  _485
REMARK  201  A    between atoms: _485  and  _486
REMARK  202  A    between atoms: _489  and  _491
REMARK  203  A    between atoms: _491  and  _492
REMARK  204  A    between atoms: _495  and  _497
REMARK  205  A    between atoms: _497  and  _498
REMARK  206  A    between atoms: _497  and  _500
REMARK  207  A    between atoms: _503  and  _505
REMARK  208  A    between atoms: _505  and  _506
REMARK  209  A    between atoms: _505  and  _508
REMARK  210  A    between atoms: _508  and  _509
REMARK  211  A    between atoms: _509  and  _510
REMARK  212  A    between atoms: _510  and  _511
REMARK  213  A    between atoms: _511  and  _512
REMARK  214  A    between atoms: _516  and  _518
REMARK  215  A    between atoms: _518  and  _519
REMARK  216  A    between atoms: _518  and  _521
REMARK  217  A    between atoms: _521  and  _522
REMARK  218  A    between atoms: _525  and  _527
REMARK  219  A    between atoms: _527  and  _528
REMARK  220  A    between atoms: _527  and  _530
REMARK  221  A    between atoms: _530  and  _531
REMARK  222  A    between atoms: _534  and  _536
REMARK  223  A    between atoms: _536  and  _537
REMARK  224  A    between atoms: _536  and  _539
REMARK  225  A    between atoms: _539  and  _540
REMARK  226  A    between atoms: _543  and  _545
REMARK  227  A    between atoms: _545  and  _546
REMARK  228  A    between atoms: _545  and  _548
REMARK  229  A    between atoms: _548  and  _549
REMARK  230  A    between atoms: _555  and  _557
REMARK  231  A    between atoms: _557  and  _558
REMARK  232  A    between atoms: _560  and  _562
REMARK  233  A    between atoms: _562  and  _563
REMARK  234  A    between atoms: _562  and  _565
REMARK  235  A    between atoms: _565  and  _566
REMARK                            x       y       z     vdW  Elec       q    Type
REMARK                         _______ _______ _______ _____ _____    ______ ____
ROOT
ATOM      1  C   ASN A   2      47.606  29.381  38.464  0.00  0.00    +0.241 C 
ATOM      2  O   ASN A   2      46.554  29.432  39.111  0.00  0.00    -0.273 OA
ATOM      3  N   LEU A   3      48.631  30.213  38.633  0.00  0.00    -0.297 N 
ATOM      4  H   LEU A   3      49.534  30.000  38.163  0.00  0.00    +0.150 HD
ENDROOT
BRANCH   3   5
ATOM      5  CA  LEU A   3      48.532  31.403  39.448  0.00  0.00    +0.149 C 
BRANCH   5   6
ATOM      6  C   LEU A   3      48.898  32.569  38.526  0.00  0.00    +0.241 C 
ATOM      7  O   LEU A   3      50.059  32.776  38.190  0.00  0.00    -0.273 OA
ATOM      8  N   ALA A   4      47.888  33.297  38.082  0.00  0.00    -0.297 N 
ATOM      9  H   ALA A   4      46.923  33.053  38.384  0.00  0.00    +0.150 HD
BRANCH   8  10
ATOM     10  CA  ALA A   4      48.080  34.434  37.181  0.00  0.00    +0.149 C 
ATOM     11  CB  ALA A   4      46.820  34.666  36.405  0.00  0.00    +0.031 C 
BRANCH  10  12
ATOM     12  C   ALA A   4      48.444  35.676  38.003  0.00  0.00    +0.241 C 
ATOM     13  O   ALA A   4      47.941  35.859  39.112  0.00  0.00    -0.273 OA
ATOM     14  N   VAL A   5      49.314  36.525  37.465  0.00  0.00    -0.298 N 
ATOM     15  H   VAL A   5      49.662  36.353  36.500  0.00  0.00    +0.150 HD
BRANCH  14  16
ATOM     16  CA  VAL A   5      49.792  37.692  38.198  0.00  0.00    +0.137 C 
BRANCH  16  17
ATOM     17  CB  VAL A   5      51.172  37.403  38.876  0.00  0.00    +0.026 C 
ATOM     18  CG2 VAL A   5      51.507  38.459  39.873  0.00  0.00    +0.002 C 
ATOM     19  CG1 VAL A   5      51.174  36.058  39.614  0.00  0.00    +0.002 C 
ENDBRANCH  16  17
BRANCH  16  20
ATOM     20  C   VAL A   5      49.900  38.891  37.264  0.00  0.00    +0.227 C 
ATOM     21  O   VAL A   5      50.223  38.722  36.091  0.00  0.00    -0.286 OA
ENDBRANCH  16  20
ENDBRANCH  14  16
ENDBRANCH  10  12
ENDBRANCH   8  10
ENDBRANCH   5   6
BRANCH   5  22
ATOM     22  CB  LEU A   3      49.451  31.311  40.664  0.00  0.00    +0.029 C 
BRANCH  22  23
ATOM     23  CG  LEU A   3      49.087  30.131  41.559  0.00  0.00    +0.002 C 
ATOM     24  CD2 LEU A   3      50.187  29.876  42.544  0.00  0.00    +0.000 C 
ATOM     25  CD1 LEU A   3      47.772  30.350  42.259  0.00  0.00    +0.000 C 
ENDBRANCH  22  23
ENDBRANCH   5  22
ENDBRANCH   3   5
BRANCH   1  26
ATOM     26  CA  ASN A   2      47.831  28.359  37.380  0.00  0.00    +0.158 C 
BRANCH  26  28
ATOM     27  C   SER A   1      49.899  28.289  36.226  0.00  0.00    +0.241 C 
ATOM     28  N   ASN A   2      49.208  27.911  37.294  0.00  0.00    -0.297 N 
ATOM     29  H   ASN A   2      49.635  27.320  38.036  0.00  0.00    +0.150 HD
ATOM     30  O   SER A   1      49.354  28.896  35.290  0.00  0.00    -0.274 OA
BRANCH  27  31
ATOM     31  CA  SER A   1      51.396  27.941  36.163  0.00  0.00    +0.174 C 
BRANCH  31  32
ATOM     32  N   SER A   1      52.006  27.558  37.436  0.00  0.00    -0.236 NA
ATOM     33  H   SER A   1      52.300  26.575  37.604  0.00  0.00    +0.142 HD
ENDBRANCH  31  32
BRANCH  31  34
ATOM     34  CB  SER A   1      51.683  26.934  35.053  0.00  0.00    +0.163 C 
BRANCH  34  35
ATOM     35  OG  SER A   1      51.321  25.639  35.443  0.00  0.00    -0.380 OA
ATOM     36  H   SER A   1      51.838  25.381  36.247  0.00  0.00    +0.211 HD
ENDBRANCH  34  35
ENDBRANCH  31  34
ENDBRANCH  27  31
ENDBRANCH  26  28
BRANCH  26  37
ATOM     37  CB  ASN A   2      46.780  27.235  37.303  0.00  0.00    +0.114 C 
BRANCH  37  38
ATOM     38  CG  ASN A   2      47.154  26.034  38.095  0.00  0.00    +0.222 C 
ATOM     39  OD1 ASN A   2      47.752  26.155  39.165  0.00  0.00    -0.275 OA
ATOM     40  ND2 ASN A   2      46.804  24.851  37.585  0.00  0.00    -0.329 N 
ATOM     41 HD21 ASN A   2      47.036  23.975  38.096  0.00  0.00    +0.145 HD
ATOM     42 HD22 ASN A   2      46.300  24.805  36.677  0.00  0.00    +0.145 HD
ENDBRANCH  37  38
ENDBRANCH  26  37
ENDBRANCH   1  26
TORSDOF 17
REMARK  Name = ../refined-set-2016/2zb1/2zb1_pocket.pdb
REMARK  235 active torsions:
REMARK  status: ('A' for Active; 'I' for Inactive)
REMARK    1  A    between atoms: _1  and  _3
REMARK    2  A    between atoms: _3  and  _4
REMARK    3  A    between atoms: _3  and  _6
REMARK    4  A    between atoms: _6  and  _7
REMARK    5  A    between atoms: _17  and  _19
REMARK    6  A    between atoms: _19  and  _20
REMARK    7  A    between atoms: _19  and  _22
REMARK    8  A    between atoms: _25  and  _27
REMARK    9  A    between atoms: _27  and  _28
REMARK   10  A    between atoms: _31  and  _33
REMARK   11  A    between atoms: _33  and  _34
REMARK   12  A    between atoms: _33  and  _36
REMARK   13  A    between atoms: _36  and  _37
REMARK   14  A    between atoms: _42  and  _43
REMARK   15  A    between atoms: _45  and  _47
REMARK   16  A    between atoms: _47  and  _48
REMARK   17  A    between atoms: _50  and  _52
REMARK   18  A    between atoms: _52  and  _53
REMARK   19  A    between atoms: _52  and  _55
REMARK   20  A    between atoms: _55  and  _56
REMARK   21  A    between atoms: _58  and  _60
REMARK   22  A    between atoms: _60  and  _61
REMARK   23  A    between atoms: _60  and  _63
REMARK   24  A    between atoms: _66  and  _68
REMARK   25  A    between atoms: _68  and  _69
REMARK   26  A    between atoms: _68  and  _71
REMARK   27  A    between atoms: _73  and  _75
REMARK   28  A    between atoms: _75  and  _76
REMARK   29  A    between atoms: _79  and  _81
REMARK   30  A    between atoms: _81  and  _82
REMARK   31  A    between atoms: _81  and  _84
REMARK   32  A    between atoms: _84  and  _85
REMARK   33  A    between atoms: _85  and  _86
REMARK   34  A    between atoms: _86  and  _87
REMARK   35  A    between atoms: _96  and  _98
REMARK   36  A    between atoms: _98  and  _99
REMARK   37  A    between atoms: _98  and  _101
REMARK   38  A    between atoms: _104  and  _106
REMARK   39  A    between atoms: _106  and  _107
REMARK   40  A    between atoms: _110  and  _112
REMARK   41  A    between atoms: _112  and  _113
REMARK   42  A    between atoms: _112  and  _115
REMARK   43  A    between atoms: _118  and  _120
REMARK   44  A    between atoms: _120  and  _121
REMARK   45  A    between atoms: _120  and  _123
REMARK   46  A    between atoms: _123  and  _124
REMARK   47  A    between atoms: _124  and  _125
REMARK   48  A    between atoms: _125  and  _126
REMARK   49  A    between atoms: _126  and  _127
REMARK   50  A    between atoms: _131  and  _133
REMARK   51  A    between atoms: _133  and  _134
REMARK   52  A    between atoms: _133  and  _136
REMARK   53  A    between atoms: _136  and  _137
REMARK   54  A    between atoms: _137  and  _138
REMARK   55  A    between atoms: _138  and  _139
REMARK   56  A    between atoms: _139  and  _140
REMARK   57  A    between atoms: _144  and  _146
REMARK   58  A    between atoms: _146  and  _147
REMARK   59  A    between atoms: _146  and  _149
REMARK   60  A    between atoms: _149  and  _150
REMARK   61  A    between atoms: _153  and  _155
REMARK   62  A    between atoms: _155  and  _156
REMARK   63  A    between atoms: _155  and  _158
REMARK   64  A    between atoms: _158  and  _159
REMARK   65  A    between atoms: _159  and  _160
REMARK   66  A    between atoms: _160  and  _161
REMARK   67  A    between atoms: _170  and  _172
REMARK   68  A    between atoms: _172  and  _173
REMARK   69  A    between atoms: _172  and  _175
REMARK   70  A    between atoms: _175  and  _176
REMARK   71  A    between atoms: _176  and  _177
REMARK   72  A    between atoms: _177  and  _178
REMARK   73  A    between atoms: _187  and  _189
REMARK   74  A    between atoms: _189  and  _190
REMARK   75  A    between atoms: _189  and  _192
REMARK   76  A    between atoms: _192  and  _193
REMARK   77  A    between atoms: _193  and  _194
REMARK   78  A    between atoms: _197  and  _199
REMARK   79  A    between atoms: _199  and  _200
REMARK   80  A    between atoms: _199  and  _202
REMARK   81  A    between atoms: _202  and  _203
REMARK   82  A    between atoms: _206  and  _208
REMARK   83  A    between atoms: _208  and  _209
REMARK   84  A    between atoms: _208  and  _211
REMARK   85  A    between atoms: _211  and  _212
REMARK   86  A    between atoms: _212  and  _213
REMARK   87  A    between atoms: _213  and  _214
REMARK   88  A    between atoms: _223  and  _225
REMARK   89  A    between atoms: _225  and  _226
REMARK   90  A    between atoms: _225  and  _228
REMARK   91  A    between atoms: _228  and  _229
REMARK   92  A    between atoms: _232  and  _234
REMARK   93  A    between atoms: _234  and  _235
REMARK   94  A    between atoms: _234  and  _237
REMARK   95  A    between atoms: _237  and  _238
REMARK   96  A    between atoms: _241  and  _243
REMARK   97  A    between atoms: _243  and  _244
REMARK   98  A    between atoms: _243  and  _246
REMARK   99  A    between atoms: _246  and  _247
REMARK  100  A    between atoms: _247  and  _248
REMARK  101  A    between atoms: _248  and  _249
REMARK  102  A    between atoms: _249  and  _250
REMARK  103  A    between atoms: _254  and  _256
REMARK  104  A    between atoms: _256  and  _257
REMARK  105  A    between atoms: _256  and  _259
REMARK  106  A    between atoms: _259  and  _260
REMARK  107  A    between atoms: _260  and  _261
REMARK  108  A    between atoms: _263  and  _265
REMARK  109  A    between atoms: _265  and  _266
REMARK  110  A    between atoms: _265  and  _268
REMARK  111  A    between atoms: _271  and  _273
REMARK  112  A    between atoms: _273  and  _274
REMARK  113  A    between atoms: _273  and  _276
REMARK  114  A    between atoms: _276  and  _277
REMARK  115  A    between atoms: _280  and  _282
REMARK  116  A    between atoms: _282  and  _283
REMARK  117  A    between atoms: _285  and  _287
REMARK  118  A    between atoms: _287  and  _288
REMARK  119  A    between atoms: _287  and  _290
REMARK  120  A    between atoms: _290  and  _291
REMARK  121  A    between atoms: _294  and  _296
REMARK  122  A    between atoms: _296  and  _297
REMARK  123  A    between atoms: _296  and  _299
REMARK  124  A    between atoms: _299  and  _300
REMARK  125  A    between atoms: _303  and  _305
REMARK  126  A    between atoms: _305  and  _306
REMARK  127  A    between atoms: _305  and  _308
REMARK  128  A    between atoms: _308  and  _309
REMARK  129  A    between atoms: _312  and  _314
REMARK  130  A    between atoms: _314  and  _315
REMARK  131  A    between atoms: _314  and  _317
REMARK  132  A    between atoms: _317  and  _318
REMARK  133  A    between atoms: _323  and  _324
REMARK  134  A    between atoms: _326  and  _328
REMARK  135  A    between atoms: _328  and  _329
REMARK  136  A    between atoms: _328  and  _331
REMARK  137  A    between atoms: _331  and  _332
REMARK  138  A    between atoms: _335  and  _337
REMARK  139  A    between atoms: _337  and  _338
REMARK  140  A    between atoms: _337  and  _340
REMARK  141  A    between atoms: _343  and  _345
REMARK  142  A    between atoms: _345  and  _346
REMARK  143  A    between atoms: _345  and  _348
REMARK  144  A    between atoms: _348  and  _349
REMARK  145  A    between atoms: _352  and  _354
REMARK  146  A    between atoms: _354  and  _355
REMARK  147  A    between atoms: _354  and  _357
REMARK  148  A    between atoms: _357  and  _358
REMARK  149  A    between atoms: _363  and  _365
REMARK  150  A    between atoms: _365  and  _366
REMARK  151  A    between atoms: _365  and  _368
REMARK  152  A    between atoms: _368  and  _369
REMARK  153  A    between atoms: _372  and  _374
REMARK  154  A    between atoms: _374  and  _375
REMARK  155  A    between atoms: _374  and  _377
REMARK  156  A    between atoms: _377  and  _378
REMARK  157  A    between atoms: _378  and  _379
REMARK  158  A    between atoms: _381  and  _383
REMARK  159  A    between atoms: _383  and  _384
REMARK  160  A    between atoms: _386  and  _388
REMARK  161  A    between atoms: _388  and  _389
REMARK  162  A    between atoms: _392  and  _394
REMARK  163  A    between atoms: _394  and  _395
REMARK  164  A    between atoms: _394  and  _397
REMARK  165  A    between atoms: _397  and  _398
REMARK  166  A    between atoms: _401  and  _403
REMARK  167  A    between atoms: _403  and  _404
REMARK  168  A    between atoms: _403  and  _406
REMARK  169  A    between atoms: _406  and  _407
REMARK  170  A    between atoms: _410  and  _412
REMARK  171  A    between atoms: _412  and  _413
REMARK  172  A    between atoms: _412  and  _415
REMARK  173  A    between atoms: _415  and  _416
REMARK  174  A    between atoms: _421  and  _423
REMARK  175  A    between atoms: _423  and  _424
REMARK  176  A    between atoms: _423  and  _426
REMARK  177  A    between atoms: _426  and  _427
REMARK  178  A    between atoms: _432  and  _434
REMARK  179  A    between atoms: _434  and  _435
REMARK  180  A    between atoms: _434  and  _437
REMARK  181  A    between atoms: _437  and  _438
REMARK  182  A    between atoms: _441  and  _443
REMARK  183  A    between atoms: _443  and  _444
REMARK  184  A    between atoms: _443  and  _446
REMARK  185  A    between atoms: _446  and  _447
REMARK  186  A    between atoms: _450  and  _452
REMARK  187  A    between atoms: _452  and  _453
REMARK  188  A    between atoms: _452  and  _455
REMARK  189  A    between atoms: _455  and  _456
REMARK  190  A    between atoms: _461  and  _463
REMARK  191  A    between atoms: _463  and  _464
REMARK  192  A    between atoms: _463  and  _466
REMARK  193  A    between atoms: _466  and  _467
REMARK  194  A    between atoms: _469  and  _471
REMARK  195  A    between atoms: _471  and  _472
REMARK  196  A    between atoms: _471  and  _474
REMARK  197  A    between atoms: _474  and  _475
REMARK  198  A    between atoms: _480  and  _482
REMARK  199  A    between atoms: _482  and  _483
REMARK  200  A    between atoms: _482  and  _485
REMARK  201  A    between atoms: _485  and  _486
REMARK  202  A    between atoms: _489  and  _491
REMARK  203  A    between atoms: _491  and  _492
REMARK  204  A    between atoms: _495  and  _497
REMARK  205  A    between atoms: _497  and  _498
REMARK  206  A    between atoms: _497  and  _500
REMARK  207  A    between atoms: _503  and  _505
REMARK  208  A    between atoms: _505  and  _506
REMARK  209  A    between atoms: _505  and  _508
REMARK  210  A    between atoms: _508  and  _509
REMARK  211  A    between atoms: _509  and  _510
REMARK  212  A    between atoms: _510  and  _511
REMARK  213  A    between atoms: _511  and  _512
REMARK  214  A    between atoms: _516  and  _518
REMARK  215  A    between atoms: _518  and  _519
REMARK  216  A    between atoms: _518  and  _521
REMARK  217  A    between atoms: _521  and  _522
REMARK  218  A    between atoms: _525  and  _527
REMARK  219  A    between atoms: _527  and  _528
REMARK  220  A    between atoms: _527  and  _530
REMARK  221  A    between atoms: _530  and  _531
REMARK  222  A    between atoms: _534  and  _536
REMARK  223  A    between atoms: _536  and  _537
REMARK  224  A    between atoms: _536  and  _539
REMARK  225  A    between atoms: _539  and  _540
REMARK  226  A    between atoms: _543  and  _545
REMARK  227  A    between atoms: _545  and  _546
REMARK  228  A    between atoms: _545  and  _548
REMARK  229  A    between atoms: _548  and  _549
REMARK  230  A    between atoms: _555  and  _557
REMARK  231  A    between atoms: _557  and  _558
REMARK  232  A    between atoms: _560  and  _562
REMARK  233  A    between atoms: _562  and  _563
REMARK  234  A    between atoms: _562  and  _565
REMARK  235  A    between atoms: _565  and  _566
REMARK                            x       y       z     vdW  Elec       q    Type
REMARK                         _______ _______ _______ _____ _____    ______ ____
ROOT
ATOM      1  C   LEU A   3      43.061  28.183  37.671  0.00  0.00    +0.241 C 
ATOM      2  O   LEU A   3      43.693  27.486  38.455  0.00  0.00    -0.273 OA
ATOM      3  N   ASP A   4      42.377  27.707  36.633  0.00  0.00    -0.297 N 
ATOM      4  H   ASP A   4      41.818  28.375  36.065  0.00  0.00    +0.150 HD
ENDROOT
BRANCH   3   5
ATOM      5  CA  ASP A   4      42.368  26.306  36.249  0.00  0.00    +0.160 C 
BRANCH   5   6
ATOM      6  C   ASP A   4      42.177  25.377  37.408  0.00  0.00    +0.241 C 
ATOM      7  N   PHE A   5      40.984  25.371  37.983  0.00  0.00    -0.297 N 
ATOM      8  H   PHE A   5      40.279  26.091  37.726  0.00  0.00    +0.150 HD
ATOM      9  O   ASP A   4      43.111  24.681  37.788  0.00  0.00    -0.273 OA
BRANCH   7  10
ATOM     10  CA  PHE A   5      40.659  24.359  38.973  0.00  0.00    +0.153 C 
BRANCH  10  11
ATOM     11  C   PHE A   5      40.763  22.964  38.317  0.00  0.00    +0.241 C 
ATOM     12  N   GLY A   6      41.382  22.012  39.018  0.00  0.00    -0.295 N 
ATOM     13  H   GLY A   6      41.797  22.255  39.940  0.00  0.00    +0.150 HD
ATOM     14  O   PHE A   5      40.304  22.773  37.180  0.00  0.00    -0.273 OA
BRANCH  12  15
ATOM     15  CA  GLY A   6      41.495  20.633  38.529  0.00  0.00    +0.176 C 
BRANCH  15  16
ATOM     16  C   GLY A   6      40.087  20.103  38.345  0.00  0.00    +0.243 C 
ATOM     17  O   GLY A   6      39.374  19.883  39.323  0.00  0.00    -0.273 OA
ATOM     18  N   LEU A   7      39.658  19.922  37.103  0.00  0.00    -0.298 N 
ATOM     19  H   LEU A   7      40.296  20.062  36.294  0.00  0.00    +0.150 HD
BRANCH  18  20
ATOM     20  CA  LEU A   7      38.292  19.528  36.902  0.00  0.00    +0.137 C 
BRANCH  20  21
ATOM     21  C   LEU A   7      38.144  18.516  35.774  0.00  0.00    +0.227 C 
ATOM     22  O   LEU A   7      38.101  17.310  36.030  0.00  0.00    -0.286 OA
ENDBRANCH  20  21
BRANCH  20  23
ATOM     23  CB  LEU A   7      37.414  20.777  36.716  0.00  0.00    +0.028 C 
BRANCH  23  24
ATOM     24  CG  LEU A   7      37.437  21.616  35.433  0.00  0.00    +0.002 C 
ATOM     25  CD2 LEU A   7      37.108  23.051  35.750  0.00  0.00    +0.000 C 
ATOM     26  CD1 LEU A   7      36.428  21.077  34.434  0.00  0.00    +0.000 C 
ENDBRANCH  23  24
ENDBRANCH  20  23
ENDBRANCH  18  20
ENDBRANCH  15  16
ENDBRANCH  12  15
ENDBRANCH  10  11
BRANCH  10  27
ATOM     27  CB  PHE A   5      39.256  24.608  39.527  0.00  0.00    +0.055 C 
BRANCH  27  28
ATOM     28  CG  PHE A   5      39.128  25.924  40.230  0.00  0.00    -0.020 A 
ATOM     29  CD2 PHE A   5      39.219  25.992  41.609  0.00  0.00    -0.004 A 
ATOM     30  CE2 PHE A   5      39.107  27.209  42.252  0.00  0.00    -0.000 A 
ATOM     31  CZ  PHE A   5      38.916  28.377  41.502  0.00  0.00    -0.000 A 
ATOM     32  CE1 PHE A   5      38.834  28.320  40.127  0.00  0.00    -0.000 A 
ATOM     33  CD1 PHE A   5      38.947  27.105  39.503  0.00  0.00    -0.004 A 
ENDBRANCH  27  28
ENDBRANCH  10  27
ENDBRANCH   7  10
ENDBRANCH   5   6
BRANCH   5  34
ATOM     34  CB  ASP A   4      43.649  25.910  35.500  0.00  0.00    +0.143 C 
BRANCH  34  35
ATOM     35  CG  ASP A   4      43.720  26.488  34.105  0.00  0.00    +0.367 C 
ATOM     36  OD2 ASP A   4      44.837  26.548  33.550  0.00  0.00    -0.246 OA
ATOM     37  OD1 ASP A   4      42.671  26.866  33.543  0.00  0.00    -0.246 OA
ENDBRANCH  34  35
ENDBRANCH   5  34
ENDBRANCH   3   5
BRANCH   1  38
ATOM     38  CA  LEU A   3      43.089  29.688  37.786  0.00  0.00    +0.149 C 
BRANCH  38  41
ATOM     39  C   ILE A   2      43.094  30.989  39.864  0.00  0.00    +0.241 C 
ATOM     40  O   ILE A   2      41.973  31.437  39.679  0.00  0.00    -0.273 OA
ATOM     41  N   LEU A   3      43.667  30.107  39.060  0.00  0.00    -0.297 N 
ATOM     42  H   LEU A   3      44.575  29.691  39.350  0.00  0.00    +0.150 HD
BRANCH  39  43
ATOM     43  CA  ILE A   2      43.909  31.419  41.060  0.00  0.00    +0.148 C 
BRANCH  43  45
ATOM     44  C   LYS A   1      44.613  33.735  40.583  0.00  0.00    +0.238 C 
ATOM     45  N   ILE A   2      43.798  32.872  41.182  0.00  0.00    -0.297 N 
ATOM     46  H   ILE A   2      43.034  33.254  41.775  0.00  0.00    +0.150 HD
ATOM     47  O   LYS A   1      45.597  33.400  39.947  0.00  0.00    -0.274 OA
BRANCH  44  48
ATOM     48  CA  LYS A   1      44.284  35.210  40.755  0.00  0.00    +0.145 C 
BRANCH  48  49
ATOM     49  N   LYS A   1      45.535  35.941  40.829  0.00  0.00    -0.238 NA
ATOM     50  H   LYS A   1      46.228  35.843  40.060  0.00  0.00    +0.142 HD
ENDBRANCH  48  49
BRANCH  48  51
ATOM     51  CB  LYS A   1      43.418  35.715  39.609  0.00  0.00    +0.026 C 
BRANCH  51  52
ATOM     52  CG  LYS A   1      42.773  37.067  39.862  0.00  0.00    -0.000 C 
BRANCH  52  53
ATOM     53  CD  LYS A   1      42.018  37.569  38.608  0.00  0.00    -0.024 C 
BRANCH  53  54
ATOM     54  CE  LYS A   1      41.394  38.936  38.824  0.00  0.00    -0.086 C 
BRANCH  54  55
ATOM     55  NZ  LYS A   1      40.686  39.000  40.148  0.00  0.00    +0.380 N 
ATOM     56  HZ1 LYS A   1      41.367  38.818  40.913  0.00  0.00    -0.089 HD
ATOM     57  HZ2 LYS A   1      40.268  39.944  40.271  0.00  0.00    -0.089 HD
ATOM     58  HZ3 LYS A   1      39.935  38.281  40.173  0.00  0.00    -0.089 HD
ENDBRANCH  54  55
ENDBRANCH  53  54
ENDBRANCH  52  53
ENDBRANCH  51  52
ENDBRANCH  48  51
ENDBRANCH  44  48
ENDBRANCH  43  45
BRANCH  43  59
ATOM     59  CB  ILE A   2      43.396  30.718  42.316  0.00  0.00    +0.027 C 
ATOM     60  CG2 ILE A   2      43.472  29.237  42.151  0.00  0.00    +0.002 C 
BRANCH  59  61
ATOM     61  CG1 ILE A   2      44.232  31.131  43.524  0.00  0.00    +0.002 C 
ATOM     62  CD1 ILE A   2      43.557  30.846  44.872  0.00  0.00    +0.000 C 
ENDBRANCH  59  61
ENDBRANCH  43  59
ENDBRANCH  39  43
ENDBRANCH  38  41
BRANCH  38  63
ATOM     63  CB  LEU A   3      44.000  30.143  36.650  0.00  0.00    +0.029 C 
BRANCH  63  64
ATOM     64  CG  LEU A   3      44.248  31.577  36.244  0.00  0.00    +0.002 C 
ATOM     65  CD2 LEU A   3      43.029  32.080  35.580  0.00  0.00    +0.000 C 
ATOM     66  CD1 LEU A   3      45.382  31.548  35.263  0.00  0.00    +0.000 C 
ENDBRANCH  63  64
ENDBRANCH  38  63
ENDBRANCH   1  38
TORSDOF 29
REMARK  Name = ../refined-set-2016/2zb1/2zb1_pocket.pdb
REMARK  235 active torsions:
REMARK  status: ('A' for Active; 'I' for Inactive)
REMARK    1  A    between atoms: _1  and  _3
REMARK    2  A    between atoms: _3  and  _4
REMARK    3  A    between atoms: _3  and  _6
REMARK    4  A    between atoms: _6  and  _7
REMARK    5  A    between atoms: _17  and  _19
REMARK    6  A    between atoms: _19  and  _20
REMARK    7  A    between atoms: _19  and  _22
REMARK    8  A    between atoms: _25  and  _27
REMARK    9  A    between atoms: _27  and  _28
REMARK   10  A    between atoms: _31  and  _33
REMARK   11  A    between atoms: _33  and  _34
REMARK   12  A    between atoms: _33  and  _36
REMARK   13  A    between atoms: _36  and  _37
REMARK   14  A    between atoms: _42  and  _43
REMARK   15  A    between atoms: _45  and  _47
REMARK   16  A    between atoms: _47  and  _48
REMARK   17  A    between atoms: _50  and  _52
REMARK   18  A    between atoms: _52  and  _53
REMARK   19  A    between atoms: _52  and  _55
REMARK   20  A    between atoms: _55  and  _56
REMARK   21  A    between atoms: _58  and  _60
REMARK   22  A    between atoms: _60  and  _61
REMARK   23  A    between atoms: _60  and  _63
REMARK   24  A    between atoms: _66  and  _68
REMARK   25  A    between atoms: _68  and  _69
REMARK   26  A    between atoms: _68  and  _71
REMARK   27  A    between atoms: _73  and  _75
REMARK   28  A    between atoms: _75  and  _76
REMARK   29  A    between atoms: _79  and  _81
REMARK   30  A    between atoms: _81  and  _82
REMARK   31  A    between atoms: _81  and  _84
REMARK   32  A    between atoms: _84  and  _85
REMARK   33  A    between atoms: _85  and  _86
REMARK   34  A    between atoms: _86  and  _87
REMARK   35  A    between atoms: _96  and  _98
REMARK   36  A    between atoms: _98  and  _99
REMARK   37  A    between atoms: _98  and  _101
REMARK   38  A    between atoms: _104  and  _106
REMARK   39  A    between atoms: _106  and  _107
REMARK   40  A    between atoms: _110  and  _112
REMARK   41  A    between atoms: _112  and  _113
REMARK   42  A    between atoms: _112  and  _115
REMARK   43  A    between atoms: _118  and  _120
REMARK   44  A    between atoms: _120  and  _121
REMARK   45  A    between atoms: _120  and  _123
REMARK   46  A    between atoms: _123  and  _124
REMARK   47  A    between atoms: _124  and  _125
REMARK   48  A    between atoms: _125  and  _126
REMARK   49  A    between atoms: _126  and  _127
REMARK   50  A    between atoms: _131  and  _133
REMARK   51  A    between atoms: _133  and  _134
REMARK   52  A    between atoms: _133  and  _136
REMARK   53  A    between atoms: _136  and  _137
REMARK   54  A    between atoms: _137  and  _138
REMARK   55  A    between atoms: _138  and  _139
REMARK   56  A    between atoms: _139  and  _140
REMARK   57  A    between atoms: _144  and  _146
REMARK   58  A    between atoms: _146  and  _147
REMARK   59  A    between atoms: _146  and  _149
REMARK   60  A    between atoms: _149  and  _150
REMARK   61  A    between atoms: _153  and  _155
REMARK   62  A    between atoms: _155  and  _156
REMARK   63  A    between atoms: _155  and  _158
REMARK   64  A    between atoms: _158  and  _159
REMARK   65  A    between atoms: _159  and  _160
REMARK   66  A    between atoms: _160  and  _161
REMARK   67  A    between atoms: _170  and  _172
REMARK   68  A    between atoms: _172  and  _173
REMARK   69  A    between atoms: _172  and  _175
REMARK   70  A    between atoms: _175  and  _176
REMARK   71  A    between atoms: _176  and  _177
REMARK   72  A    between atoms: _177  and  _178
REMARK   73  A    between atoms: _187  and  _189
REMARK   74  A    between atoms: _189  and  _190
REMARK   75  A    between atoms: _189  and  _192
REMARK   76  A    between atoms: _192  and  _193
REMARK   77  A    between atoms: _193  and  _194
REMARK   78  A    between atoms: _197  and  _199
REMARK   79  A    between atoms: _199  and  _200
REMARK   80  A    between atoms: _199  and  _202
REMARK   81  A    between atoms: _202  and  _203
REMARK   82  A    between atoms: _206  and  _208
REMARK   83  A    between atoms: _208  and  _209
REMARK   84  A    between atoms: _208  and  _211
REMARK   85  A    between atoms: _211  and  _212
REMARK   86  A    between atoms: _212  and  _213
REMARK   87  A    between atoms: _213  and  _214
REMARK   88  A    between atoms: _223  and  _225
REMARK   89  A    between atoms: _225  and  _226
REMARK   90  A    between atoms: _225  and  _228
REMARK   91  A    between atoms: _228  and  _229
REMARK   92  A    between atoms: _232  and  _234
REMARK   93  A    between atoms: _234  and  _235
REMARK   94  A    between atoms: _234  and  _237
REMARK   95  A    between atoms: _237  and  _238
REMARK   96  A    between atoms: _241  and  _243
REMARK   97  A    between atoms: _243  and  _244
REMARK   98  A    between atoms: _243  and  _246
REMARK   99  A    between atoms: _246  and  _247
REMARK  100  A    between atoms: _247  and  _248
REMARK  101  A    between atoms: _248  and  _249
REMARK  102  A    between atoms: _249  and  _250
REMARK  103  A    between atoms: _254  and  _256
REMARK  104  A    between atoms: _256  and  _257
REMARK  105  A    between atoms: _256  and  _259
REMARK  106  A    between atoms: _259  and  _260
REMARK  107  A    between atoms: _260  and  _261
REMARK  108  A    between atoms: _263  and  _265
REMARK  109  A    between atoms: _265  and  _266
REMARK  110  A    between atoms: _265  and  _268
REMARK  111  A    between atoms: _271  and  _273
REMARK  112  A    between atoms: _273  and  _274
REMARK  113  A    between atoms: _273  and  _276
REMARK  114  A    between atoms: _276  and  _277
REMARK  115  A    between atoms: _280  and  _282
REMARK  116  A    between atoms: _282  and  _283
REMARK  117  A    between atoms: _285  and  _287
REMARK  118  A    between atoms: _287  and  _288
REMARK  119  A    between atoms: _287  and  _290
REMARK  120  A    between atoms: _290  and  _291
REMARK  121  A    between atoms: _294  and  _296
REMARK  122  A    between atoms: _296  and  _297
REMARK  123  A    between atoms: _296  and  _299
REMARK  124  A    between atoms: _299  and  _300
REMARK  125  A    between atoms: _303  and  _305
REMARK  126  A    between atoms: _305  and  _306
REMARK  127  A    between atoms: _305  and  _308
REMARK  128  A    between atoms: _308  and  _309
REMARK  129  A    between atoms: _312  and  _314
REMARK  130  A    between atoms: _314  and  _315
REMARK  131  A    between atoms: _314  and  _317
REMARK  132  A    between atoms: _317  and  _318
REMARK  133  A    between atoms: _323  and  _324
REMARK  134  A    between atoms: _326  and  _328
REMARK  135  A    between atoms: _328  and  _329
REMARK  136  A    between atoms: _328  and  _331
REMARK  137  A    between atoms: _331  and  _332
REMARK  138  A    between atoms: _335  and  _337
REMARK  139  A    between atoms: _337  and  _338
REMARK  140  A    between atoms: _337  and  _340
REMARK  141  A    between atoms: _343  and  _345
REMARK  142  A    between atoms: _345  and  _346
REMARK  143  A    between atoms: _345  and  _348
REMARK  144  A    between atoms: _348  and  _349
REMARK  145  A    between atoms: _352  and  _354
REMARK  146  A    between atoms: _354  and  _355
REMARK  147  A    between atoms: _354  and  _357
REMARK  148  A    between atoms: _357  and  _358
REMARK  149  A    between atoms: _363  and  _365
REMARK  150  A    between atoms: _365  and  _366
REMARK  151  A    between atoms: _365  and  _368
REMARK  152  A    between atoms: _368  and  _369
REMARK  153  A    between atoms: _372  and  _374
REMARK  154  A    between atoms: _374  and  _375
REMARK  155  A    between atoms: _374  and  _377
REMARK  156  A    between atoms: _377  and  _378
REMARK  157  A    between atoms: _378  and  _379
REMARK  158  A    between atoms: _381  and  _383
REMARK  159  A    between atoms: _383  and  _384
REMARK  160  A    between atoms: _386  and  _388
REMARK  161  A    between atoms: _388  and  _389
REMARK  162  A    between atoms: _392  and  _394
REMARK  163  A    between atoms: _394  and  _395
REMARK  164  A    between atoms: _394  and  _397
REMARK  165  A    between atoms: _397  and  _398
REMARK  166  A    between atoms: _401  and  _403
REMARK  167  A    between atoms: _403  and  _404
REMARK  168  A    between atoms: _403  and  _406
REMARK  169  A    between atoms: _406  and  _407
REMARK  170  A    between atoms: _410  and  _412
REMARK  171  A    between atoms: _412  and  _413
REMARK  172  A    between atoms: _412  and  _415
REMARK  173  A    between atoms: _415  and  _416
REMARK  174  A    between atoms: _421  and  _423
REMARK  175  A    between atoms: _423  and  _424
REMARK  176  A    between atoms: _423  and  _426
REMARK  177  A    between atoms: _426  and  _427
REMARK  178  A    between atoms: _432  and  _434
REMARK  179  A    between atoms: _434  and  _435
REMARK  180  A    between atoms: _434  and  _437
REMARK  181  A    between atoms: _437  and  _438
REMARK  182  A    between atoms: _441  and  _443
REMARK  183  A    between atoms: _443  and  _444
REMARK  184  A    between atoms: _443  and  _446
REMARK  185  A    between atoms: _446  and  _447
REMARK  186  A    between atoms: _450  and  _452
REMARK  187  A    between atoms: _452  and  _453
REMARK  188  A    between atoms: _452  and  _455
REMARK  189  A    between atoms: _455  and  _456
REMARK  190  A    between atoms: _461  and  _463
REMARK  191  A    between atoms: _463  and  _464
REMARK  192  A    between atoms: _463  and  _466
REMARK  193  A    between atoms: _466  and  _467
REMARK  194  A    between atoms: _469  and  _471
REMARK  195  A    between atoms: _471  and  _472
REMARK  196  A    between atoms: _471  and  _474
REMARK  197  A    between atoms: _474  and  _475
REMARK  198  A    between atoms: _480  and  _482
REMARK  199  A    between atoms: _482  and  _483
REMARK  200  A    between atoms: _482  and  _485
REMARK  201  A    between atoms: _485  and  _486
REMARK  202  A    between atoms: _489  and  _491
REMARK  203  A    between atoms: _491  and  _492
REMARK  204  A    between atoms: _495  and  _497
REMARK  205  A    between atoms: _497  and  _498
REMARK  206  A    between atoms: _497  and  _500
REMARK  207  A    between atoms: _503  and  _505
REMARK  208  A    between atoms: _505  and  _506
REMARK  209  A    between atoms: _505  and  _508
REMARK  210  A    between atoms: _508  and  _509
REMARK  211  A    between atoms: _509  and  _510
REMARK  212  A    between atoms: _510  and  _511
REMARK  213  A    between atoms: _511  and  _512
REMARK  214  A    between atoms: _516  and  _518
REMARK  215  A    between atoms: _518  and  _519
REMARK  216  A    between atoms: _518  and  _521
REMARK  217  A    between atoms: _521  and  _522
REMARK  218  A    between atoms: _525  and  _527
REMARK  219  A    between atoms: _527  and  _528
REMARK  220  A    between atoms: _527  and  _530
REMARK  221  A    between atoms: _530  and  _531
REMARK  222  A    between atoms: _534  and  _536
REMARK  223  A    between atoms: _536  and  _537
REMARK  224  A    between atoms: _536  and  _539
REMARK  225  A    between atoms: _539  and  _540
REMARK  226  A    between atoms: _543  and  _545
REMARK  227  A    between atoms: _545  and  _546
REMARK  228  A    between atoms: _545  and  _548
REMARK  229  A    between atoms: _548  and  _549
REMARK  230  A    between atoms: _555  and  _557
REMARK  231  A    between atoms: _557  and  _558
REMARK  232  A    between atoms: _560  and  _562
REMARK  233  A    between atoms: _562  and  _563
REMARK  234  A    between atoms: _562  and  _565
REMARK  235  A    between atoms: _565  and  _566
REMARK                            x       y       z     vdW  Elec       q    Type
REMARK                         _______ _______ _______ _____ _____    ______ ____
ROOT
ATOM      1  O   HOH     1      38.031  37.081  35.670  0.00  0.00    +0.000 OA
ENDROOT
TORSDOF 0
REMARK  Name = ../refined-set-2016/2zb1/2zb1_pocket.pdb
REMARK  235 active torsions:
REMARK  status: ('A' for Active; 'I' for Inactive)
REMARK    1  A    between atoms: _1  and  _3
REMARK    2  A    between atoms: _3  and  _4
REMARK    3  A    between atoms: _3  and  _6
REMARK    4  A    between atoms: _6  and  _7
REMARK    5  A    between atoms: _17  and  _19
REMARK    6  A    between atoms: _19  and  _20
REMARK    7  A    between atoms: _19  and  _22
REMARK    8  A    between atoms: _25  and  _27
REMARK    9  A    between atoms: _27  and  _28
REMARK   10  A    between atoms: _31  and  _33
REMARK   11  A    between atoms: _33  and  _34
REMARK   12  A    between atoms: _33  and  _36
REMARK   13  A    between atoms: _36  and  _37
REMARK   14  A    between atoms: _42  and  _43
REMARK   15  A    between atoms: _45  and  _47
REMARK   16  A    between atoms: _47  and  _48
REMARK   17  A    between atoms: _50  and  _52
REMARK   18  A    between atoms: _52  and  _53
REMARK   19  A    between atoms: _52  and  _55
REMARK   20  A    between atoms: _55  and  _56
REMARK   21  A    between atoms: _58  and  _60
REMARK   22  A    between atoms: _60  and  _61
REMARK   23  A    between atoms: _60  and  _63
REMARK   24  A    between atoms: _66  and  _68
REMARK   25  A    between atoms: _68  and  _69
REMARK   26  A    between atoms: _68  and  _71
REMARK   27  A    between atoms: _73  and  _75
REMARK   28  A    between atoms: _75  and  _76
REMARK   29  A    between atoms: _79  and  _81
REMARK   30  A    between atoms: _81  and  _82
REMARK   31  A    between atoms: _81  and  _84
REMARK   32  A    between atoms: _84  and  _85
REMARK   33  A    between atoms: _85  and  _86
REMARK   34  A    between atoms: _86  and  _87
REMARK   35  A    between atoms: _96  and  _98
REMARK   36  A    between atoms: _98  and  _99
REMARK   37  A    between atoms: _98  and  _101
REMARK   38  A    between atoms: _104  and  _106
REMARK   39  A    between atoms: _106  and  _107
REMARK   40  A    between atoms: _110  and  _112
REMARK   41  A    between atoms: _112  and  _113
REMARK   42  A    between atoms: _112  and  _115
REMARK   43  A    between atoms: _118  and  _120
REMARK   44  A    between atoms: _120  and  _121
REMARK   45  A    between atoms: _120  and  _123
REMARK   46  A    between atoms: _123  and  _124
REMARK   47  A    between atoms: _124  and  _125
REMARK   48  A    between atoms: _125  and  _126
REMARK   49  A    between atoms: _126  and  _127
REMARK   50  A    between atoms: _131  and  _133
REMARK   51  A    between atoms: _133  and  _134
REMARK   52  A    between atoms: _133  and  _136
REMARK   53  A    between atoms: _136  and  _137
REMARK   54  A    between atoms: _137  and  _138
REMARK   55  A    between atoms: _138  and  _139
REMARK   56  A    between atoms: _139  and  _140
REMARK   57  A    between atoms: _144  and  _146
REMARK   58  A    between atoms: _146  and  _147
REMARK   59  A    between atoms: _146  and  _149
REMARK   60  A    between atoms: _149  and  _150
REMARK   61  A    between atoms: _153  and  _155
REMARK   62  A    between atoms: _155  and  _156
REMARK   63  A    between atoms: _155  and  _158
REMARK   64  A    between atoms: _158  and  _159
REMARK   65  A    between atoms: _159  and  _160
REMARK   66  A    between atoms: _160  and  _161
REMARK   67  A    between atoms: _170  and  _172
REMARK   68  A    between atoms: _172  and  _173
REMARK   69  A    between atoms: _172  and  _175
REMARK   70  A    between atoms: _175  and  _176
REMARK   71  A    between atoms: _176  and  _177
REMARK   72  A    between atoms: _177  and  _178
REMARK   73  A    between atoms: _187  and  _189
REMARK   74  A    between atoms: _189  and  _190
REMARK   75  A    between atoms: _189  and  _192
REMARK   76  A    between atoms: _192  and  _193
REMARK   77  A    between atoms: _193  and  _194
REMARK   78  A    between atoms: _197  and  _199
REMARK   79  A    between atoms: _199  and  _200
REMARK   80  A    between atoms: _199  and  _202
REMARK   81  A    between atoms: _202  and  _203
REMARK   82  A    between atoms: _206  and  _208
REMARK   83  A    between atoms: _208  and  _209
REMARK   84  A    between atoms: _208  and  _211
REMARK   85  A    between atoms: _211  and  _212
REMARK   86  A    between atoms: _212  and  _213
REMARK   87  A    between atoms: _213  and  _214
REMARK   88  A    between atoms: _223  and  _225
REMARK   89  A    between atoms: _225  and  _226
REMARK   90  A    between atoms: _225  and  _228
REMARK   91  A    between atoms: _228  and  _229
REMARK   92  A    between atoms: _232  and  _234
REMARK   93  A    between atoms: _234  and  _235
REMARK   94  A    between atoms: _234  and  _237
REMARK   95  A    between atoms: _237  and  _238
REMARK   96  A    between atoms: _241  and  _243
REMARK   97  A    between atoms: _243  and  _244
REMARK   98  A    between atoms: _243  and  _246
REMARK   99  A    between atoms: _246  and  _247
REMARK  100  A    between atoms: _247  and  _248
REMARK  101  A    between atoms: _248  and  _249
REMARK  102  A    between atoms: _249  and  _250
REMARK  103  A    between atoms: _254  and  _256
REMARK  104  A    between atoms: _256  and  _257
REMARK  105  A    between atoms: _256  and  _259
REMARK  106  A    between atoms: _259  and  _260
REMARK  107  A    between atoms: _260  and  _261
REMARK  108  A    between atoms: _263  and  _265
REMARK  109  A    between atoms: _265  and  _266
REMARK  110  A    between atoms: _265  and  _268
REMARK  111  A    between atoms: _271  and  _273
REMARK  112  A    between atoms: _273  and  _274
REMARK  113  A    between atoms: _273  and  _276
REMARK  114  A    between atoms: _276  and  _277
REMARK  115  A    between atoms: _280  and  _282
REMARK  116  A    between atoms: _282  and  _283
REMARK  117  A    between atoms: _285  and  _287
REMARK  118  A    between atoms: _287  and  _288
REMARK  119  A    between atoms: _287  and  _290
REMARK  120  A    between atoms: _290  and  _291
REMARK  121  A    between atoms: _294  and  _296
REMARK  122  A    between atoms: _296  and  _297
REMARK  123  A    between atoms: _296  and  _299
REMARK  124  A    between atoms: _299  and  _300
REMARK  125  A    between atoms: _303  and  _305
REMARK  126  A    between atoms: _305  and  _306
REMARK  127  A    between atoms: _305  and  _308
REMARK  128  A    between atoms: _308  and  _309
REMARK  129  A    between atoms: _312  and  _314
REMARK  130  A    between atoms: _314  and  _315
REMARK  131  A    between atoms: _314  and  _317
REMARK  132  A    between atoms: _317  and  _318
REMARK  133  A    between atoms: _323  and  _324
REMARK  134  A    between atoms: _326  and  _328
REMARK  135  A    between atoms: _328  and  _329
REMARK  136  A    between atoms: _328  and  _331
REMARK  137  A    between atoms: _331  and  _332
REMARK  138  A    between atoms: _335  and  _337
REMARK  139  A    between atoms: _337  and  _338
REMARK  140  A    between atoms: _337  and  _340
REMARK  141  A    between atoms: _343  and  _345
REMARK  142  A    between atoms: _345  and  _346
REMARK  143  A    between atoms: _345  and  _348
REMARK  144  A    between atoms: _348  and  _349
REMARK  145  A    between atoms: _352  and  _354
REMARK  146  A    between atoms: _354  and  _355
REMARK  147  A    between atoms: _354  and  _357
REMARK  148  A    between atoms: _357  and  _358
REMARK  149  A    between atoms: _363  and  _365
REMARK  150  A    between atoms: _365  and  _366
REMARK  151  A    between atoms: _365  and  _368
REMARK  152  A    between atoms: _368  and  _369
REMARK  153  A    between atoms: _372  and  _374
REMARK  154  A    between atoms: _374  and  _375
REMARK  155  A    between atoms: _374  and  _377
REMARK  156  A    between atoms: _377  and  _378
REMARK  157  A    between atoms: _378  and  _379
REMARK  158  A    between atoms: _381  and  _383
REMARK  159  A    between atoms: _383  and  _384
REMARK  160  A    between atoms: _386  and  _388
REMARK  161  A    between atoms: _388  and  _389
REMARK  162  A    between atoms: _392  and  _394
REMARK  163  A    between atoms: _394  and  _395
REMARK  164  A    between atoms: _394  and  _397
REMARK  165  A    between atoms: _397  and  _398
REMARK  166  A    between atoms: _401  and  _403
REMARK  167  A    between atoms: _403  and  _404
REMARK  168  A    between atoms: _403  and  _406
REMARK  169  A    between atoms: _406  and  _407
REMARK  170  A    between atoms: _410  and  _412
REMARK  171  A    between atoms: _412  and  _413
REMARK  172  A    between atoms: _412  and  _415
REMARK  173  A    between atoms: _415  and  _416
REMARK  174  A    between atoms: _421  and  _423
REMARK  175  A    between atoms: _423  and  _424
REMARK  176  A    between atoms: _423  and  _426
REMARK  177  A    between atoms: _426  and  _427
REMARK  178  A    between atoms: _432  and  _434
REMARK  179  A    between atoms: _434  and  _435
REMARK  180  A    between atoms: _434  and  _437
REMARK  181  A    between atoms: _437  and  _438
REMARK  182  A    between atoms: _441  and  _443
REMARK  183  A    between atoms: _443  and  _444
REMARK  184  A    between atoms: _443  and  _446
REMARK  185  A    between atoms: _446  and  _447
REMARK  186  A    between atoms: _450  and  _452
REMARK  187  A    between atoms: _452  and  _453
REMARK  188  A    between atoms: _452  and  _455
REMARK  189  A    between atoms: _455  and  _456
REMARK  190  A    between atoms: _461  and  _463
REMARK  191  A    between atoms: _463  and  _464
REMARK  192  A    between atoms: _463  and  _466
REMARK  193  A    between atoms: _466  and  _467
REMARK  194  A    between atoms: _469  and  _471
REMARK  195  A    between atoms: _471  and  _472
REMARK  196  A    between atoms: _471  and  _474
REMARK  197  A    between atoms: _474  and  _475
REMARK  198  A    between atoms: _480  and  _482
REMARK  199  A    between atoms: _482  and  _483
REMARK  200  A    between atoms: _482  and  _485
REMARK  201  A    between atoms: _485  and  _486
REMARK  202  A    between atoms: _489  and  _491
REMARK  203  A    between atoms: _491  and  _492
REMARK  204  A    between atoms: _495  and  _497
REMARK  205  A    between atoms: _497  and  _498
REMARK  206  A    between atoms: _497  and  _500
REMARK  207  A    between atoms: _503  and  _505
REMARK  208  A    between atoms: _505  and  _506
REMARK  209  A    between atoms: _505  and  _508
REMARK  210  A    between atoms: _508  and  _509
REMARK  211  A    between atoms: _509  and  _510
REMARK  212  A    between atoms: _510  and  _511
REMARK  213  A    between atoms: _511  and  _512
REMARK  214  A    between atoms: _516  and  _518
REMARK  215  A    between atoms: _518  and  _519
REMARK  216  A    between atoms: _518  and  _521
REMARK  217  A    between atoms: _521  and  _522
REMARK  218  A    between atoms: _525  and  _527
REMARK  219  A    between atoms: _527  and  _528
REMARK  220  A    between atoms: _527  and  _530
REMARK  221  A    between atoms: _530  and  _531
REMARK  222  A    between atoms: _534  and  _536
REMARK  223  A    between atoms: _536  and  _537
REMARK  224  A    between atoms: _536  and  _539
REMARK  225  A    between atoms: _539  and  _540
REMARK  226  A    between atoms: _543  and  _545
REMARK  227  A    between atoms: _545  and  _546
REMARK  228  A    between atoms: _545  and  _548
REMARK  229  A    between atoms: _548  and  _549
REMARK  230  A    between atoms: _555  and  _557
REMARK  231  A    between atoms: _557  and  _558
REMARK  232  A    between atoms: _560  and  _562
REMARK  233  A    between atoms: _562  and  _563
REMARK  234  A    between atoms: _562  and  _565
REMARK  235  A    between atoms: _565  and  _566
REMARK                            x       y       z     vdW  Elec       q    Type
REMARK                         _______ _______ _______ _____ _____    ______ ____
ROOT
ATOM      1  O   HOH     1      54.357  28.626  32.670  0.00  0.00    +0.000 OA
ENDROOT
TORSDOF 0
REMARK  Name = ../refined-set-2016/2zb1/2zb1_pocket.pdb
REMARK  235 active torsions:
REMARK  status: ('A' for Active; 'I' for Inactive)
REMARK    1  A    between atoms: _1  and  _3
REMARK    2  A    between atoms: _3  and  _4
REMARK    3  A    between atoms: _3  and  _6
REMARK    4  A    between atoms: _6  and  _7
REMARK    5  A    between atoms: _17  and  _19
REMARK    6  A    between atoms: _19  and  _20
REMARK    7  A    between atoms: _19  and  _22
REMARK    8  A    between atoms: _25  and  _27
REMARK    9  A    between atoms: _27  and  _28
REMARK   10  A    between atoms: _31  and  _33
REMARK   11  A    between atoms: _33  and  _34
REMARK   12  A    between atoms: _33  and  _36
REMARK   13  A    between atoms: _36  and  _37
REMARK   14  A    between atoms: _42  and  _43
REMARK   15  A    between atoms: _45  and  _47
REMARK   16  A    between atoms: _47  and  _48
REMARK   17  A    between atoms: _50  and  _52
REMARK   18  A    between atoms: _52  and  _53
REMARK   19  A    between atoms: _52  and  _55
REMARK   20  A    between atoms: _55  and  _56
REMARK   21  A    between atoms: _58  and  _60
REMARK   22  A    between atoms: _60  and  _61
REMARK   23  A    between atoms: _60  and  _63
REMARK   24  A    between atoms: _66  and  _68
REMARK   25  A    between atoms: _68  and  _69
REMARK   26  A    between atoms: _68  and  _71
REMARK   27  A    between atoms: _73  and  _75
REMARK   28  A    between atoms: _75  and  _76
REMARK   29  A    between atoms: _79  and  _81
REMARK   30  A    between atoms: _81  and  _82
REMARK   31  A    between atoms: _81  and  _84
REMARK   32  A    between atoms: _84  and  _85
REMARK   33  A    between atoms: _85  and  _86
REMARK   34  A    between atoms: _86  and  _87
REMARK   35  A    between atoms: _96  and  _98
REMARK   36  A    between atoms: _98  and  _99
REMARK   37  A    between atoms: _98  and  _101
REMARK   38  A    between atoms: _104  and  _106
REMARK   39  A    between atoms: _106  and  _107
REMARK   40  A    between atoms: _110  and  _112
REMARK   41  A    between atoms: _112  and  _113
REMARK   42  A    between atoms: _112  and  _115
REMARK   43  A    between atoms: _118  and  _120
REMARK   44  A    between atoms: _120  and  _121
REMARK   45  A    between atoms: _120  and  _123
REMARK   46  A    between atoms: _123  and  _124
REMARK   47  A    between atoms: _124  and  _125
REMARK   48  A    between atoms: _125  and  _126
REMARK   49  A    between atoms: _126  and  _127
REMARK   50  A    between atoms: _131  and  _133
REMARK   51  A    between atoms: _133  and  _134
REMARK   52  A    between atoms: _133  and  _136
REMARK   53  A    between atoms: _136  and  _137
REMARK   54  A    between atoms: _137  and  _138
REMARK   55  A    between atoms: _138  and  _139
REMARK   56  A    between atoms: _139  and  _140
REMARK   57  A    between atoms: _144  and  _146
REMARK   58  A    between atoms: _146  and  _147
REMARK   59  A    between atoms: _146  and  _149
REMARK   60  A    between atoms: _149  and  _150
REMARK   61  A    between atoms: _153  and  _155
REMARK   62  A    between atoms: _155  and  _156
REMARK   63  A    between atoms: _155  and  _158
REMARK   64  A    between atoms: _158  and  _159
REMARK   65  A    between atoms: _159  and  _160
REMARK   66  A    between atoms: _160  and  _161
REMARK   67  A    between atoms: _170  and  _172
REMARK   68  A    between atoms: _172  and  _173
REMARK   69  A    between atoms: _172  and  _175
REMARK   70  A    between atoms: _175  and  _176
REMARK   71  A    between atoms: _176  and  _177
REMARK   72  A    between atoms: _177  and  _178
REMARK   73  A    between atoms: _187  and  _189
REMARK   74  A    between atoms: _189  and  _190
REMARK   75  A    between atoms: _189  and  _192
REMARK   76  A    between atoms: _192  and  _193
REMARK   77  A    between atoms: _193  and  _194
REMARK   78  A    between atoms: _197  and  _199
REMARK   79  A    between atoms: _199  and  _200
REMARK   80  A    between atoms: _199  and  _202
REMARK   81  A    between atoms: _202  and  _203
REMARK   82  A    between atoms: _206  and  _208
REMARK   83  A    between atoms: _208  and  _209
REMARK   84  A    between atoms: _208  and  _211
REMARK   85  A    between atoms: _211  and  _212
REMARK   86  A    between atoms: _212  and  _213
REMARK   87  A    between atoms: _213  and  _214
REMARK   88  A    between atoms: _223  and  _225
REMARK   89  A    between atoms: _225  and  _226
REMARK   90  A    between atoms: _225  and  _228
REMARK   91  A    between atoms: _228  and  _229
REMARK   92  A    between atoms: _232  and  _234
REMARK   93  A    between atoms: _234  and  _235
REMARK   94  A    between atoms: _234  and  _237
REMARK   95  A    between atoms: _237  and  _238
REMARK   96  A    between atoms: _241  and  _243
REMARK   97  A    between atoms: _243  and  _244
REMARK   98  A    between atoms: _243  and  _246
REMARK   99  A    between atoms: _246  and  _247
REMARK  100  A    between atoms: _247  and  _248
REMARK  101  A    between atoms: _248  and  _249
REMARK  102  A    between atoms: _249  and  _250
REMARK  103  A    between atoms: _254  and  _256
REMARK  104  A    between atoms: _256  and  _257
REMARK  105  A    between atoms: _256  and  _259
REMARK  106  A    between atoms: _259  and  _260
REMARK  107  A    between atoms: _260  and  _261
REMARK  108  A    between atoms: _263  and  _265
REMARK  109  A    between atoms: _265  and  _266
REMARK  110  A    between atoms: _265  and  _268
REMARK  111  A    between atoms: _271  and  _273
REMARK  112  A    between atoms: _273  and  _274
REMARK  113  A    between atoms: _273  and  _276
REMARK  114  A    between atoms: _276  and  _277
REMARK  115  A    between atoms: _280  and  _282
REMARK  116  A    between atoms: _282  and  _283
REMARK  117  A    between atoms: _285  and  _287
REMARK  118  A    between atoms: _287  and  _288
REMARK  119  A    between atoms: _287  and  _290
REMARK  120  A    between atoms: _290  and  _291
REMARK  121  A    between atoms: _294  and  _296
REMARK  122  A    between atoms: _296  and  _297
REMARK  123  A    between atoms: _296  and  _299
REMARK  124  A    between atoms: _299  and  _300
REMARK  125  A    between atoms: _303  and  _305
REMARK  126  A    between atoms: _305  and  _306
REMARK  127  A    between atoms: _305  and  _308
REMARK  128  A    between atoms: _308  and  _309
REMARK  129  A    between atoms: _312  and  _314
REMARK  130  A    between atoms: _314  and  _315
REMARK  131  A    between atoms: _314  and  _317
REMARK  132  A    between atoms: _317  and  _318
REMARK  133  A    between atoms: _323  and  _324
REMARK  134  A    between atoms: _326  and  _328
REMARK  135  A    between atoms: _328  and  _329
REMARK  136  A    between atoms: _328  and  _331
REMARK  137  A    between atoms: _331  and  _332
REMARK  138  A    between atoms: _335  and  _337
REMARK  139  A    between atoms: _337  and  _338
REMARK  140  A    between atoms: _337  and  _340
REMARK  141  A    between atoms: _343  and  _345
REMARK  142  A    between atoms: _345  and  _346
REMARK  143  A    between atoms: _345  and  _348
REMARK  144  A    between atoms: _348  and  _349
REMARK  145  A    between atoms: _352  and  _354
REMARK  146  A    between atoms: _354  and  _355
REMARK  147  A    between atoms: _354  and  _357
REMARK  148  A    between atoms: _357  and  _358
REMARK  149  A    between atoms: _363  and  _365
REMARK  150  A    between atoms: _365  and  _366
REMARK  151  A    between atoms: _365  and  _368
REMARK  152  A    between atoms: _368  and  _369
REMARK  153  A    between atoms: _372  and  _374
REMARK  154  A    between atoms: _374  and  _375
REMARK  155  A    between atoms: _374  and  _377
REMARK  156  A    between atoms: _377  and  _378
REMARK  157  A    between atoms: _378  and  _379
REMARK  158  A    between atoms: _381  and  _383
REMARK  159  A    between atoms: _383  and  _384
REMARK  160  A    between atoms: _386  and  _388
REMARK  161  A    between atoms: _388  and  _389
REMARK  162  A    between atoms: _392  and  _394
REMARK  163  A    between atoms: _394  and  _395
REMARK  164  A    between atoms: _394  and  _397
REMARK  165  A    between atoms: _397  and  _398
REMARK  166  A    between atoms: _401  and  _403
REMARK  167  A    between atoms: _403  and  _404
REMARK  168  A    between atoms: _403  and  _406
REMARK  169  A    between atoms: _406  and  _407
REMARK  170  A    between atoms: _410  and  _412
REMARK  171  A    between atoms: _412  and  _413
REMARK  172  A    between atoms: _412  and  _415
REMARK  173  A    between atoms: _415  and  _416
REMARK  174  A    between atoms: _421  and  _423
REMARK  175  A    between atoms: _423  and  _424
REMARK  176  A    between atoms: _423  and  _426
REMARK  177  A    between atoms: _426  and  _427
REMARK  178  A    between atoms: _432  and  _434
REMARK  179  A    between atoms: _434  and  _435
REMARK  180  A    between atoms: _434  and  _437
REMARK  181  A    between atoms: _437  and  _438
REMARK  182  A    between atoms: _441  and  _443
REMARK  183  A    between atoms: _443  and  _444
REMARK  184  A    between atoms: _443  and  _446
REMARK  185  A    between atoms: _446  and  _447
REMARK  186  A    between atoms: _450  and  _452
REMARK  187  A    between atoms: _452  and  _453
REMARK  188  A    between atoms: _452  and  _455
REMARK  189  A    between atoms: _455  and  _456
REMARK  190  A    between atoms: _461  and  _463
REMARK  191  A    between atoms: _463  and  _464
REMARK  192  A    between atoms: _463  and  _466
REMARK  193  A    between atoms: _466  and  _467
REMARK  194  A    between atoms: _469  and  _471
REMARK  195  A    between atoms: _471  and  _472
REMARK  196  A    between atoms: _471  and  _474
REMARK  197  A    between atoms: _474  and  _475
REMARK  198  A    between atoms: _480  and  _482
REMARK  199  A    between atoms: _482  and  _483
REMARK  200  A    between atoms: _482  and  _485
REMARK  201  A    between atoms: _485  and  _486
REMARK  202  A    between atoms: _489  and  _491
REMARK  203  A    between atoms: _491  and  _492
REMARK  204  A    between atoms: _495  and  _497
REMARK  205  A    between atoms: _497  and  _498
REMARK  206  A    between atoms: _497  and  _500
REMARK  207  A    between atoms: _503  and  _505
REMARK  208  A    between atoms: _505  and  _506
REMARK  209  A    between atoms: _505  and  _508
REMARK  210  A    between atoms: _508  and  _509
REMARK  211  A    between atoms: _509  and  _510
REMARK  212  A    between atoms: _510  and  _511
REMARK  213  A    between atoms: _511  and  _512
REMARK  214  A    between atoms: _516  and  _518
REMARK  215  A    between atoms: _518  and  _519
REMARK  216  A    between atoms: _518  and  _521
REMARK  217  A    between atoms: _521  and  _522
REMARK  218  A    between atoms: _525  and  _527
REMARK  219  A    between atoms: _527  and  _528
REMARK  220  A    between atoms: _527  and  _530
REMARK  221  A    between atoms: _530  and  _531
REMARK  222  A    between atoms: _534  and  _536
REMARK  223  A    between atoms: _536  and  _537
REMARK  224  A    between atoms: _536  and  _539
REMARK  225  A    between atoms: _539  and  _540
REMARK  226  A    between atoms: _543  and  _545
REMARK  227  A    between atoms: _545  and  _546
REMARK  228  A    between atoms: _545  and  _548
REMARK  229  A    between atoms: _548  and  _549
REMARK  230  A    between atoms: _555  and  _557
REMARK  231  A    between atoms: _557  and  _558
REMARK  232  A    between atoms: _560  and  _562
REMARK  233  A    between atoms: _562  and  _563
REMARK  234  A    between atoms: _562  and  _565
REMARK  235  A    between atoms: _565  and  _566
REMARK                            x       y       z     vdW  Elec       q    Type
REMARK                         _______ _______ _______ _____ _____    ______ ____
ROOT
ATOM      1  O   HOH     1      37.904  23.578  29.367  0.00  0.00    +0.000 OA
ENDROOT
TORSDOF 0
REMARK  Name = ../refined-set-2016/2zb1/2zb1_pocket.pdb
REMARK  235 active torsions:
REMARK  status: ('A' for Active; 'I' for Inactive)
REMARK    1  A    between atoms: _1  and  _3
REMARK    2  A    between atoms: _3  and  _4
REMARK    3  A    between atoms: _3  and  _6
REMARK    4  A    between atoms: _6  and  _7
REMARK    5  A    between atoms: _17  and  _19
REMARK    6  A    between atoms: _19  and  _20
REMARK    7  A    between atoms: _19  and  _22
REMARK    8  A    between atoms: _25  and  _27
REMARK    9  A    between atoms: _27  and  _28
REMARK   10  A    between atoms: _31  and  _33
REMARK   11  A    between atoms: _33  and  _34
REMARK   12  A    between atoms: _33  and  _36
REMARK   13  A    between atoms: _36  and  _37
REMARK   14  A    between atoms: _42  and  _43
REMARK   15  A    between atoms: _45  and  _47
REMARK   16  A    between atoms: _47  and  _48
REMARK   17  A    between atoms: _50  and  _52
REMARK   18  A    between atoms: _52  and  _53
REMARK   19  A    between atoms: _52  and  _55
REMARK   20  A    between atoms: _55  and  _56
REMARK   21  A    between atoms: _58  and  _60
REMARK   22  A    between atoms: _60  and  _61
REMARK   23  A    between atoms: _60  and  _63
REMARK   24  A    between atoms: _66  and  _68
REMARK   25  A    between atoms: _68  and  _69
REMARK   26  A    between atoms: _68  and  _71
REMARK   27  A    between atoms: _73  and  _75
REMARK   28  A    between atoms: _75  and  _76
REMARK   29  A    between atoms: _79  and  _81
REMARK   30  A    between atoms: _81  and  _82
REMARK   31  A    between atoms: _81  and  _84
REMARK   32  A    between atoms: _84  and  _85
REMARK   33  A    between atoms: _85  and  _86
REMARK   34  A    between atoms: _86  and  _87
REMARK   35  A    between atoms: _96  and  _98
REMARK   36  A    between atoms: _98  and  _99
REMARK   37  A    between atoms: _98  and  _101
REMARK   38  A    between atoms: _104  and  _106
REMARK   39  A    between atoms: _106  and  _107
REMARK   40  A    between atoms: _110  and  _112
REMARK   41  A    between atoms: _112  and  _113
REMARK   42  A    between atoms: _112  and  _115
REMARK   43  A    between atoms: _118  and  _120
REMARK   44  A    between atoms: _120  and  _121
REMARK   45  A    between atoms: _120  and  _123
REMARK   46  A    between atoms: _123  and  _124
REMARK   47  A    between atoms: _124  and  _125
REMARK   48  A    between atoms: _125  and  _126
REMARK   49  A    between atoms: _126  and  _127
REMARK   50  A    between atoms: _131  and  _133
REMARK   51  A    between atoms: _133  and  _134
REMARK   52  A    between atoms: _133  and  _136
REMARK   53  A    between atoms: _136  and  _137
REMARK   54  A    between atoms: _137  and  _138
REMARK   55  A    between atoms: _138  and  _139
REMARK   56  A    between atoms: _139  and  _140
REMARK   57  A    between atoms: _144  and  _146
REMARK   58  A    between atoms: _146  and  _147
REMARK   59  A    between atoms: _146  and  _149
REMARK   60  A    between atoms: _149  and  _150
REMARK   61  A    between atoms: _153  and  _155
REMARK   62  A    between atoms: _155  and  _156
REMARK   63  A    between atoms: _155  and  _158
REMARK   64  A    between atoms: _158  and  _159
REMARK   65  A    between atoms: _159  and  _160
REMARK   66  A    between atoms: _160  and  _161
REMARK   67  A    between atoms: _170  and  _172
REMARK   68  A    between atoms: _172  and  _173
REMARK   69  A    between atoms: _172  and  _175
REMARK   70  A    between atoms: _175  and  _176
REMARK   71  A    between atoms: _176  and  _177
REMARK   72  A    between atoms: _177  and  _178
REMARK   73  A    between atoms: _187  and  _189
REMARK   74  A    between atoms: _189  and  _190
REMARK   75  A    between atoms: _189  and  _192
REMARK   76  A    between atoms: _192  and  _193
REMARK   77  A    between atoms: _193  and  _194
REMARK   78  A    between atoms: _197  and  _199
REMARK   79  A    between atoms: _199  and  _200
REMARK   80  A    between atoms: _199  and  _202
REMARK   81  A    between atoms: _202  and  _203
REMARK   82  A    between atoms: _206  and  _208
REMARK   83  A    between atoms: _208  and  _209
REMARK   84  A    between atoms: _208  and  _211
REMARK   85  A    between atoms: _211  and  _212
REMARK   86  A    between atoms: _212  and  _213
REMARK   87  A    between atoms: _213  and  _214
REMARK   88  A    between atoms: _223  and  _225
REMARK   89  A    between atoms: _225  and  _226
REMARK   90  A    between atoms: _225  and  _228
REMARK   91  A    between atoms: _228  and  _229
REMARK   92  A    between atoms: _232  and  _234
REMARK   93  A    between atoms: _234  and  _235
REMARK   94  A    between atoms: _234  and  _237
REMARK   95  A    between atoms: _237  and  _238
REMARK   96  A    between atoms: _241  and  _243
REMARK   97  A    between atoms: _243  and  _244
REMARK   98  A    between atoms: _243  and  _246
REMARK   99  A    between atoms: _246  and  _247
REMARK  100  A    between atoms: _247  and  _248
REMARK  101  A    between atoms: _248  and  _249
REMARK  102  A    between atoms: _249  and  _250
REMARK  103  A    between atoms: _254  and  _256
REMARK  104  A    between atoms: _256  and  _257
REMARK  105  A    between atoms: _256  and  _259
REMARK  106  A    between atoms: _259  and  _260
REMARK  107  A    between atoms: _260  and  _261
REMARK  108  A    between atoms: _263  and  _265
REMARK  109  A    between atoms: _265  and  _266
REMARK  110  A    between atoms: _265  and  _268
REMARK  111  A    between atoms: _271  and  _273
REMARK  112  A    between atoms: _273  and  _274
REMARK  113  A    between atoms: _273  and  _276
REMARK  114  A    between atoms: _276  and  _277
REMARK  115  A    between atoms: _280  and  _282
REMARK  116  A    between atoms: _282  and  _283
REMARK  117  A    between atoms: _285  and  _287
REMARK  118  A    between atoms: _287  and  _288
REMARK  119  A    between atoms: _287  and  _290
REMARK  120  A    between atoms: _290  and  _291
REMARK  121  A    between atoms: _294  and  _296
REMARK  122  A    between atoms: _296  and  _297
REMARK  123  A    between atoms: _296  and  _299
REMARK  124  A    between atoms: _299  and  _300
REMARK  125  A    between atoms: _303  and  _305
REMARK  126  A    between atoms: _305  and  _306
REMARK  127  A    between atoms: _305  and  _308
REMARK  128  A    between atoms: _308  and  _309
REMARK  129  A    between atoms: _312  and  _314
REMARK  130  A    between atoms: _314  and  _315
REMARK  131  A    between atoms: _314  and  _317
REMARK  132  A    between atoms: _317  and  _318
REMARK  133  A    between atoms: _323  and  _324
REMARK  134  A    between atoms: _326  and  _328
REMARK  135  A    between atoms: _328  and  _329
REMARK  136  A    between atoms: _328  and  _331
REMARK  137  A    between atoms: _331  and  _332
REMARK  138  A    between atoms: _335  and  _337
REMARK  139  A    between atoms: _337  and  _338
REMARK  140  A    between atoms: _337  and  _340
REMARK  141  A    between atoms: _343  and  _345
REMARK  142  A    between atoms: _345  and  _346
REMARK  143  A    between atoms: _345  and  _348
REMARK  144  A    between atoms: _348  and  _349
REMARK  145  A    between atoms: _352  and  _354
REMARK  146  A    between atoms: _354  and  _355
REMARK  147  A    between atoms: _354  and  _357
REMARK  148  A    between atoms: _357  and  _358
REMARK  149  A    between atoms: _363  and  _365
REMARK  150  A    between atoms: _365  and  _366
REMARK  151  A    between atoms: _365  and  _368
REMARK  152  A    between atoms: _368  and  _369
REMARK  153  A    between atoms: _372  and  _374
REMARK  154  A    between atoms: _374  and  _375
REMARK  155  A    between atoms: _374  and  _377
REMARK  156  A    between atoms: _377  and  _378
REMARK  157  A    between atoms: _378  and  _379
REMARK  158  A    between atoms: _381  and  _383
REMARK  159  A    between atoms: _383  and  _384
REMARK  160  A    between atoms: _386  and  _388
REMARK  161  A    between atoms: _388  and  _389
REMARK  162  A    between atoms: _392  and  _394
REMARK  163  A    between atoms: _394  and  _395
REMARK  164  A    between atoms: _394  and  _397
REMARK  165  A    between atoms: _397  and  _398
REMARK  166  A    between atoms: _401  and  _403
REMARK  167  A    between atoms: _403  and  _404
REMARK  168  A    between atoms: _403  and  _406
REMARK  169  A    between atoms: _406  and  _407
REMARK  170  A    between atoms: _410  and  _412
REMARK  171  A    between atoms: _412  and  _413
REMARK  172  A    between atoms: _412  and  _415
REMARK  173  A    between atoms: _415  and  _416
REMARK  174  A    between atoms: _421  and  _423
REMARK  175  A    between atoms: _423  and  _424
REMARK  176  A    between atoms: _423  and  _426
REMARK  177  A    between atoms: _426  and  _427
REMARK  178  A    between atoms: _432  and  _434
REMARK  179  A    between atoms: _434  and  _435
REMARK  180  A    between atoms: _434  and  _437
REMARK  181  A    between atoms: _437  and  _438
REMARK  182  A    between atoms: _441  and  _443
REMARK  183  A    between atoms: _443  and  _444
REMARK  184  A    between atoms: _443  and  _446
REMARK  185  A    between atoms: _446  and  _447
REMARK  186  A    between atoms: _450  and  _452
REMARK  187  A    between atoms: _452  and  _453
REMARK  188  A    between atoms: _452  and  _455
REMARK  189  A    between atoms: _455  and  _456
REMARK  190  A    between atoms: _461  and  _463
REMARK  191  A    between atoms: _463  and  _464
REMARK  192  A    between atoms: _463  and  _466
REMARK  193  A    between atoms: _466  and  _467
REMARK  194  A    between atoms: _469  and  _471
REMARK  195  A    between atoms: _471  and  _472
REMARK  196  A    between atoms: _471  and  _474
REMARK  197  A    between atoms: _474  and  _475
REMARK  198  A    between atoms: _480  and  _482
REMARK  199  A    between atoms: _482  and  _483
REMARK  200  A    between atoms: _482  and  _485
REMARK  201  A    between atoms: _485  and  _486
REMARK  202  A    between atoms: _489  and  _491
REMARK  203  A    between atoms: _491  and  _492
REMARK  204  A    between atoms: _495  and  _497
REMARK  205  A    between atoms: _497  and  _498
REMARK  206  A    between atoms: _497  and  _500
REMARK  207  A    between atoms: _503  and  _505
REMARK  208  A    between atoms: _505  and  _506
REMARK  209  A    between atoms: _505  and  _508
REMARK  210  A    between atoms: _508  and  _509
REMARK  211  A    between atoms: _509  and  _510
REMARK  212  A    between atoms: _510  and  _511
REMARK  213  A    between atoms: _511  and  _512
REMARK  214  A    between atoms: _516  and  _518
REMARK  215  A    between atoms: _518  and  _519
REMARK  216  A    between atoms: _518  and  _521
REMARK  217  A    between atoms: _521  and  _522
REMARK  218  A    between atoms: _525  and  _527
REMARK  219  A    between atoms: _527  and  _528
REMARK  220  A    between atoms: _527  and  _530
REMARK  221  A    between atoms: _530  and  _531
REMARK  222  A    between atoms: _534  and  _536
REMARK  223  A    between atoms: _536  and  _537
REMARK  224  A    between atoms: _536  and  _539
REMARK  225  A    between atoms: _539  and  _540
REMARK  226  A    between atoms: _543  and  _545
REMARK  227  A    between atoms: _545  and  _546
REMARK  228  A    between atoms: _545  and  _548
REMARK  229  A    between atoms: _548  and  _549
REMARK  230  A    between atoms: _555  and  _557
REMARK  231  A    between atoms: _557  and  _558
REMARK  232  A    between atoms: _560  and  _562
REMARK  233  A    between atoms: _562  and  _563
REMARK  234  A    between atoms: _562  and  _565
REMARK  235  A    between atoms: _565  and  _566
REMARK                            x       y       z     vdW  Elec       q    Type
REMARK                         _______ _______ _______ _____ _____    ______ ____
ROOT
ATOM      1  O   HOH     1      47.240  42.127  30.726  0.00  0.00    +0.000 OA
ENDROOT
TORSDOF 0
REMARK  Name = ../refined-set-2016/2zb1/2zb1_pocket.pdb
REMARK  235 active torsions:
REMARK  status: ('A' for Active; 'I' for Inactive)
REMARK    1  A    between atoms: _1  and  _3
REMARK    2  A    between atoms: _3  and  _4
REMARK    3  A    between atoms: _3  and  _6
REMARK    4  A    between atoms: _6  and  _7
REMARK    5  A    between atoms: _17  and  _19
REMARK    6  A    between atoms: _19  and  _20
REMARK    7  A    between atoms: _19  and  _22
REMARK    8  A    between atoms: _25  and  _27
REMARK    9  A    between atoms: _27  and  _28
REMARK   10  A    between atoms: _31  and  _33
REMARK   11  A    between atoms: _33  and  _34
REMARK   12  A    between atoms: _33  and  _36
REMARK   13  A    between atoms: _36  and  _37
REMARK   14  A    between atoms: _42  and  _43
REMARK   15  A    between atoms: _45  and  _47
REMARK   16  A    between atoms: _47  and  _48
REMARK   17  A    between atoms: _50  and  _52
REMARK   18  A    between atoms: _52  and  _53
REMARK   19  A    between atoms: _52  and  _55
REMARK   20  A    between atoms: _55  and  _56
REMARK   21  A    between atoms: _58  and  _60
REMARK   22  A    between atoms: _60  and  _61
REMARK   23  A    between atoms: _60  and  _63
REMARK   24  A    between atoms: _66  and  _68
REMARK   25  A    between atoms: _68  and  _69
REMARK   26  A    between atoms: _68  and  _71
REMARK   27  A    between atoms: _73  and  _75
REMARK   28  A    between atoms: _75  and  _76
REMARK   29  A    between atoms: _79  and  _81
REMARK   30  A    between atoms: _81  and  _82
REMARK   31  A    between atoms: _81  and  _84
REMARK   32  A    between atoms: _84  and  _85
REMARK   33  A    between atoms: _85  and  _86
REMARK   34  A    between atoms: _86  and  _87
REMARK   35  A    between atoms: _96  and  _98
REMARK   36  A    between atoms: _98  and  _99
REMARK   37  A    between atoms: _98  and  _101
REMARK   38  A    between atoms: _104  and  _106
REMARK   39  A    between atoms: _106  and  _107
REMARK   40  A    between atoms: _110  and  _112
REMARK   41  A    between atoms: _112  and  _113
REMARK   42  A    between atoms: _112  and  _115
REMARK   43  A    between atoms: _118  and  _120
REMARK   44  A    between atoms: _120  and  _121
REMARK   45  A    between atoms: _120  and  _123
REMARK   46  A    between atoms: _123  and  _124
REMARK   47  A    between atoms: _124  and  _125
REMARK   48  A    between atoms: _125  and  _126
REMARK   49  A    between atoms: _126  and  _127
REMARK   50  A    between atoms: _131  and  _133
REMARK   51  A    between atoms: _133  and  _134
REMARK   52  A    between atoms: _133  and  _136
REMARK   53  A    between atoms: _136  and  _137
REMARK   54  A    between atoms: _137  and  _138
REMARK   55  A    between atoms: _138  and  _139
REMARK   56  A    between atoms: _139  and  _140
REMARK   57  A    between atoms: _144  and  _146
REMARK   58  A    between atoms: _146  and  _147
REMARK   59  A    between atoms: _146  and  _149
REMARK   60  A    between atoms: _149  and  _150
REMARK   61  A    between atoms: _153  and  _155
REMARK   62  A    between atoms: _155  and  _156
REMARK   63  A    between atoms: _155  and  _158
REMARK   64  A    between atoms: _158  and  _159
REMARK   65  A    between atoms: _159  and  _160
REMARK   66  A    between atoms: _160  and  _161
REMARK   67  A    between atoms: _170  and  _172
REMARK   68  A    between atoms: _172  and  _173
REMARK   69  A    between atoms: _172  and  _175
REMARK   70  A    between atoms: _175  and  _176
REMARK   71  A    between atoms: _176  and  _177
REMARK   72  A    between atoms: _177  and  _178
REMARK   73  A    between atoms: _187  and  _189
REMARK   74  A    between atoms: _189  and  _190
REMARK   75  A    between atoms: _189  and  _192
REMARK   76  A    between atoms: _192  and  _193
REMARK   77  A    between atoms: _193  and  _194
REMARK   78  A    between atoms: _197  and  _199
REMARK   79  A    between atoms: _199  and  _200
REMARK   80  A    between atoms: _199  and  _202
REMARK   81  A    between atoms: _202  and  _203
REMARK   82  A    between atoms: _206  and  _208
REMARK   83  A    between atoms: _208  and  _209
REMARK   84  A    between atoms: _208  and  _211
REMARK   85  A    between atoms: _211  and  _212
REMARK   86  A    between atoms: _212  and  _213
REMARK   87  A    between atoms: _213  and  _214
REMARK   88  A    between atoms: _223  and  _225
REMARK   89  A    between atoms: _225  and  _226
REMARK   90  A    between atoms: _225  and  _228
REMARK   91  A    between atoms: _228  and  _229
REMARK   92  A    between atoms: _232  and  _234
REMARK   93  A    between atoms: _234  and  _235
REMARK   94  A    between atoms: _234  and  _237
REMARK   95  A    between atoms: _237  and  _238
REMARK   96  A    between atoms: _241  and  _243
REMARK   97  A    between atoms: _243  and  _244
REMARK   98  A    between atoms: _243  and  _246
REMARK   99  A    between atoms: _246  and  _247
REMARK  100  A    between atoms: _247  and  _248
REMARK  101  A    between atoms: _248  and  _249
REMARK  102  A    between atoms: _249  and  _250
REMARK  103  A    between atoms: _254  and  _256
REMARK  104  A    between atoms: _256  and  _257
REMARK  105  A    between atoms: _256  and  _259
REMARK  106  A    between atoms: _259  and  _260
REMARK  107  A    between atoms: _260  and  _261
REMARK  108  A    between atoms: _263  and  _265
REMARK  109  A    between atoms: _265  and  _266
REMARK  110  A    between atoms: _265  and  _268
REMARK  111  A    between atoms: _271  and  _273
REMARK  112  A    between atoms: _273  and  _274
REMARK  113  A    between atoms: _273  and  _276
REMARK  114  A    between atoms: _276  and  _277
REMARK  115  A    between atoms: _280  and  _282
REMARK  116  A    between atoms: _282  and  _283
REMARK  117  A    between atoms: _285  and  _287
REMARK  118  A    between atoms: _287  and  _288
REMARK  119  A    between atoms: _287  and  _290
REMARK  120  A    between atoms: _290  and  _291
REMARK  121  A    between atoms: _294  and  _296
REMARK  122  A    between atoms: _296  and  _297
REMARK  123  A    between atoms: _296  and  _299
REMARK  124  A    between atoms: _299  and  _300
REMARK  125  A    between atoms: _303  and  _305
REMARK  126  A    between atoms: _305  and  _306
REMARK  127  A    between atoms: _305  and  _308
REMARK  128  A    between atoms: _308  and  _309
REMARK  129  A    between atoms: _312  and  _314
REMARK  130  A    between atoms: _314  and  _315
REMARK  131  A    between atoms: _314  and  _317
REMARK  132  A    between atoms: _317  and  _318
REMARK  133  A    between atoms: _323  and  _324
REMARK  134  A    between atoms: _326  and  _328
REMARK  135  A    between atoms: _328  and  _329
REMARK  136  A    between atoms: _328  and  _331
REMARK  137  A    between atoms: _331  and  _332
REMARK  138  A    between atoms: _335  and  _337
REMARK  139  A    between atoms: _337  and  _338
REMARK  140  A    between atoms: _337  and  _340
REMARK  141  A    between atoms: _343  and  _345
REMARK  142  A    between atoms: _345  and  _346
REMARK  143  A    between atoms: _345  and  _348
REMARK  144  A    between atoms: _348  and  _349
REMARK  145  A    between atoms: _352  and  _354
REMARK  146  A    between atoms: _354  and  _355
REMARK  147  A    between atoms: _354  and  _357
REMARK  148  A    between atoms: _357  and  _358
REMARK  149  A    between atoms: _363  and  _365
REMARK  150  A    between atoms: _365  and  _366
REMARK  151  A    between atoms: _365  and  _368
REMARK  152  A    between atoms: _368  and  _369
REMARK  153  A    between atoms: _372  and  _374
REMARK  154  A    between atoms: _374  and  _375
REMARK  155  A    between atoms: _374  and  _377
REMARK  156  A    between atoms: _377  and  _378
REMARK  157  A    between atoms: _378  and  _379
REMARK  158  A    between atoms: _381  and  _383
REMARK  159  A    between atoms: _383  and  _384
REMARK  160  A    between atoms: _386  and  _388
REMARK  161  A    between atoms: _388  and  _389
REMARK  162  A    between atoms: _392  and  _394
REMARK  163  A    between atoms: _394  and  _395
REMARK  164  A    between atoms: _394  and  _397
REMARK  165  A    between atoms: _397  and  _398
REMARK  166  A    between atoms: _401  and  _403
REMARK  167  A    between atoms: _403  and  _404
REMARK  168  A    between atoms: _403  and  _406
REMARK  169  A    between atoms: _406  and  _407
REMARK  170  A    between atoms: _410  and  _412
REMARK  171  A    between atoms: _412  and  _413
REMARK  172  A    between atoms: _412  and  _415
REMARK  173  A    between atoms: _415  and  _416
REMARK  174  A    between atoms: _421  and  _423
REMARK  175  A    between atoms: _423  and  _424
REMARK  176  A    between atoms: _423  and  _426
REMARK  177  A    between atoms: _426  and  _427
REMARK  178  A    between atoms: _432  and  _434
REMARK  179  A    between atoms: _434  and  _435
REMARK  180  A    between atoms: _434  and  _437
REMARK  181  A    between atoms: _437  and  _438
REMARK  182  A    between atoms: _441  and  _443
REMARK  183  A    between atoms: _443  and  _444
REMARK  184  A    between atoms: _443  and  _446
REMARK  185  A    between atoms: _446  and  _447
REMARK  186  A    between atoms: _450  and  _452
REMARK  187  A    between atoms: _452  and  _453
REMARK  188  A    between atoms: _452  and  _455
REMARK  189  A    between atoms: _455  and  _456
REMARK  190  A    between atoms: _461  and  _463
REMARK  191  A    between atoms: _463  and  _464
REMARK  192  A    between atoms: _463  and  _466
REMARK  193  A    between atoms: _466  and  _467
REMARK  194  A    between atoms: _469  and  _471
REMARK  195  A    between atoms: _471  and  _472
REMARK  196  A    between atoms: _471  and  _474
REMARK  197  A    between atoms: _474  and  _475
REMARK  198  A    between atoms: _480  and  _482
REMARK  199  A    between atoms: _482  and  _483
REMARK  200  A    between atoms: _482  and  _485
REMARK  201  A    between atoms: _485  and  _486
REMARK  202  A    between atoms: _489  and  _491
REMARK  203  A    between atoms: _491  and  _492
REMARK  204  A    between atoms: _495  and  _497
REMARK  205  A    between atoms: _497  and  _498
REMARK  206  A    between atoms: _497  and  _500
REMARK  207  A    between atoms: _503  and  _505
REMARK  208  A    between atoms: _505  and  _506
REMARK  209  A    between atoms: _505  and  _508
REMARK  210  A    between atoms: _508  and  _509
REMARK  211  A    between atoms: _509  and  _510
REMARK  212  A    between atoms: _510  and  _511
REMARK  213  A    between atoms: _511  and  _512
REMARK  214  A    between atoms: _516  and  _518
REMARK  215  A    between atoms: _518  and  _519
REMARK  216  A    between atoms: _518  and  _521
REMARK  217  A    between atoms: _521  and  _522
REMARK  218  A    between atoms: _525  and  _527
REMARK  219  A    between atoms: _527  and  _528
REMARK  220  A    between atoms: _527  and  _530
REMARK  221  A    between atoms: _530  and  _531
REMARK  222  A    between atoms: _534  and  _536
REMARK  223  A    between atoms: _536  and  _537
REMARK  224  A    between atoms: _536  and  _539
REMARK  225  A    between atoms: _539  and  _540
REMARK  226  A    between atoms: _543  and  _545
REMARK  227  A    between atoms: _545  and  _546
REMARK  228  A    between atoms: _545  and  _548
REMARK  229  A    between atoms: _548  and  _549
REMARK  230  A    between atoms: _555  and  _557
REMARK  231  A    between atoms: _557  and  _558
REMARK  232  A    between atoms: _560  and  _562
REMARK  233  A    between atoms: _562  and  _563
REMARK  234  A    between atoms: _562  and  _565
REMARK  235  A    between atoms: _565  and  _566
REMARK                            x       y       z     vdW  Elec       q    Type
REMARK                         _______ _______ _______ _____ _____    ______ ____
ROOT
ATOM      1  O   HOH     1      53.947  34.166  32.000  0.00  0.00    +0.000 OA
ENDROOT
TORSDOF 0
REMARK  Name = ../refined-set-2016/2zb1/2zb1_pocket.pdb
REMARK  235 active torsions:
REMARK  status: ('A' for Active; 'I' for Inactive)
REMARK    1  A    between atoms: _1  and  _3
REMARK    2  A    between atoms: _3  and  _4
REMARK    3  A    between atoms: _3  and  _6
REMARK    4  A    between atoms: _6  and  _7
REMARK    5  A    between atoms: _17  and  _19
REMARK    6  A    between atoms: _19  and  _20
REMARK    7  A    between atoms: _19  and  _22
REMARK    8  A    between atoms: _25  and  _27
REMARK    9  A    between atoms: _27  and  _28
REMARK   10  A    between atoms: _31  and  _33
REMARK   11  A    between atoms: _33  and  _34
REMARK   12  A    between atoms: _33  and  _36
REMARK   13  A    between atoms: _36  and  _37
REMARK   14  A    between atoms: _42  and  _43
REMARK   15  A    between atoms: _45  and  _47
REMARK   16  A    between atoms: _47  and  _48
REMARK   17  A    between atoms: _50  and  _52
REMARK   18  A    between atoms: _52  and  _53
REMARK   19  A    between atoms: _52  and  _55
REMARK   20  A    between atoms: _55  and  _56
REMARK   21  A    between atoms: _58  and  _60
REMARK   22  A    between atoms: _60  and  _61
REMARK   23  A    between atoms: _60  and  _63
REMARK   24  A    between atoms: _66  and  _68
REMARK   25  A    between atoms: _68  and  _69
REMARK   26  A    between atoms: _68  and  _71
REMARK   27  A    between atoms: _73  and  _75
REMARK   28  A    between atoms: _75  and  _76
REMARK   29  A    between atoms: _79  and  _81
REMARK   30  A    between atoms: _81  and  _82
REMARK   31  A    between atoms: _81  and  _84
REMARK   32  A    between atoms: _84  and  _85
REMARK   33  A    between atoms: _85  and  _86
REMARK   34  A    between atoms: _86  and  _87
REMARK   35  A    between atoms: _96  and  _98
REMARK   36  A    between atoms: _98  and  _99
REMARK   37  A    between atoms: _98  and  _101
REMARK   38  A    between atoms: _104  and  _106
REMARK   39  A    between atoms: _106  and  _107
REMARK   40  A    between atoms: _110  and  _112
REMARK   41  A    between atoms: _112  and  _113
REMARK   42  A    between atoms: _112  and  _115
REMARK   43  A    between atoms: _118  and  _120
REMARK   44  A    between atoms: _120  and  _121
REMARK   45  A    between atoms: _120  and  _123
REMARK   46  A    between atoms: _123  and  _124
REMARK   47  A    between atoms: _124  and  _125
REMARK   48  A    between atoms: _125  and  _126
REMARK   49  A    between atoms: _126  and  _127
REMARK   50  A    between atoms: _131  and  _133
REMARK   51  A    between atoms: _133  and  _134
REMARK   52  A    between atoms: _133  and  _136
REMARK   53  A    between atoms: _136  and  _137
REMARK   54  A    between atoms: _137  and  _138
REMARK   55  A    between atoms: _138  and  _139
REMARK   56  A    between atoms: _139  and  _140
REMARK   57  A    between atoms: _144  and  _146
REMARK   58  A    between atoms: _146  and  _147
REMARK   59  A    between atoms: _146  and  _149
REMARK   60  A    between atoms: _149  and  _150
REMARK   61  A    between atoms: _153  and  _155
REMARK   62  A    between atoms: _155  and  _156
REMARK   63  A    between atoms: _155  and  _158
REMARK   64  A    between atoms: _158  and  _159
REMARK   65  A    between atoms: _159  and  _160
REMARK   66  A    between atoms: _160  and  _161
REMARK   67  A    between atoms: _170  and  _172
REMARK   68  A    between atoms: _172  and  _173
REMARK   69  A    between atoms: _172  and  _175
REMARK   70  A    between atoms: _175  and  _176
REMARK   71  A    between atoms: _176  and  _177
REMARK   72  A    between atoms: _177  and  _178
REMARK   73  A    between atoms: _187  and  _189
REMARK   74  A    between atoms: _189  and  _190
REMARK   75  A    between atoms: _189  and  _192
REMARK   76  A    between atoms: _192  and  _193
REMARK   77  A    between atoms: _193  and  _194
REMARK   78  A    between atoms: _197  and  _199
REMARK   79  A    between atoms: _199  and  _200
REMARK   80  A    between atoms: _199  and  _202
REMARK   81  A    between atoms: _202  and  _203
REMARK   82  A    between atoms: _206  and  _208
REMARK   83  A    between atoms: _208  and  _209
REMARK   84  A    between atoms: _208  and  _211
REMARK   85  A    between atoms: _211  and  _212
REMARK   86  A    between atoms: _212  and  _213
REMARK   87  A    between atoms: _213  and  _214
REMARK   88  A    between atoms: _223  and  _225
REMARK   89  A    between atoms: _225  and  _226
REMARK   90  A    between atoms: _225  and  _228
REMARK   91  A    between atoms: _228  and  _229
REMARK   92  A    between atoms: _232  and  _234
REMARK   93  A    between atoms: _234  and  _235
REMARK   94  A    between atoms: _234  and  _237
REMARK   95  A    between atoms: _237  and  _238
REMARK   96  A    between atoms: _241  and  _243
REMARK   97  A    between atoms: _243  and  _244
REMARK   98  A    between atoms: _243  and  _246
REMARK   99  A    between atoms: _246  and  _247
REMARK  100  A    between atoms: _247  and  _248
REMARK  101  A    between atoms: _248  and  _249
REMARK  102  A    between atoms: _249  and  _250
REMARK  103  A    between atoms: _254  and  _256
REMARK  104  A    between atoms: _256  and  _257
REMARK  105  A    between atoms: _256  and  _259
REMARK  106  A    between atoms: _259  and  _260
REMARK  107  A    between atoms: _260  and  _261
REMARK  108  A    between atoms: _263  and  _265
REMARK  109  A    between atoms: _265  and  _266
REMARK  110  A    between atoms: _265  and  _268
REMARK  111  A    between atoms: _271  and  _273
REMARK  112  A    between atoms: _273  and  _274
REMARK  113  A    between atoms: _273  and  _276
REMARK  114  A    between atoms: _276  and  _277
REMARK  115  A    between atoms: _280  and  _282
REMARK  116  A    between atoms: _282  and  _283
REMARK  117  A    between atoms: _285  and  _287
REMARK  118  A    between atoms: _287  and  _288
REMARK  119  A    between atoms: _287  and  _290
REMARK  120  A    between atoms: _290  and  _291
REMARK  121  A    between atoms: _294  and  _296
REMARK  122  A    between atoms: _296  and  _297
REMARK  123  A    between atoms: _296  and  _299
REMARK  124  A    between atoms: _299  and  _300
REMARK  125  A    between atoms: _303  and  _305
REMARK  126  A    between atoms: _305  and  _306
REMARK  127  A    between atoms: _305  and  _308
REMARK  128  A    between atoms: _308  and  _309
REMARK  129  A    between atoms: _312  and  _314
REMARK  130  A    between atoms: _314  and  _315
REMARK  131  A    between atoms: _314  and  _317
REMARK  132  A    between atoms: _317  and  _318
REMARK  133  A    between atoms: _323  and  _324
REMARK  134  A    between atoms: _326  and  _328
REMARK  135  A    between atoms: _328  and  _329
REMARK  136  A    between atoms: _328  and  _331
REMARK  137  A    between atoms: _331  and  _332
REMARK  138  A    between atoms: _335  and  _337
REMARK  139  A    between atoms: _337  and  _338
REMARK  140  A    between atoms: _337  and  _340
REMARK  141  A    between atoms: _343  and  _345
REMARK  142  A    between atoms: _345  and  _346
REMARK  143  A    between atoms: _345  and  _348
REMARK  144  A    between atoms: _348  and  _349
REMARK  145  A    between atoms: _352  and  _354
REMARK  146  A    between atoms: _354  and  _355
REMARK  147  A    between atoms: _354  and  _357
REMARK  148  A    between atoms: _357  and  _358
REMARK  149  A    between atoms: _363  and  _365
REMARK  150  A    between atoms: _365  and  _366
REMARK  151  A    between atoms: _365  and  _368
REMARK  152  A    between atoms: _368  and  _369
REMARK  153  A    between atoms: _372  and  _374
REMARK  154  A    between atoms: _374  and  _375
REMARK  155  A    between atoms: _374  and  _377
REMARK  156  A    between atoms: _377  and  _378
REMARK  157  A    between atoms: _378  and  _379
REMARK  158  A    between atoms: _381  and  _383
REMARK  159  A    between atoms: _383  and  _384
REMARK  160  A    between atoms: _386  and  _388
REMARK  161  A    between atoms: _388  and  _389
REMARK  162  A    between atoms: _392  and  _394
REMARK  163  A    between atoms: _394  and  _395
REMARK  164  A    between atoms: _394  and  _397
REMARK  165  A    between atoms: _397  and  _398
REMARK  166  A    between atoms: _401  and  _403
REMARK  167  A    between atoms: _403  and  _404
REMARK  168  A    between atoms: _403  and  _406
REMARK  169  A    between atoms: _406  and  _407
REMARK  170  A    between atoms: _410  and  _412
REMARK  171  A    between atoms: _412  and  _413
REMARK  172  A    between atoms: _412  and  _415
REMARK  173  A    between atoms: _415  and  _416
REMARK  174  A    between atoms: _421  and  _423
REMARK  175  A    between atoms: _423  and  _424
REMARK  176  A    between atoms: _423  and  _426
REMARK  177  A    between atoms: _426  and  _427
REMARK  178  A    between atoms: _432  and  _434
REMARK  179  A    between atoms: _434  and  _435
REMARK  180  A    between atoms: _434  and  _437
REMARK  181  A    between atoms: _437  and  _438
REMARK  182  A    between atoms: _441  and  _443
REMARK  183  A    between atoms: _443  and  _444
REMARK  184  A    between atoms: _443  and  _446
REMARK  185  A    between atoms: _446  and  _447
REMARK  186  A    between atoms: _450  and  _452
REMARK  187  A    between atoms: _452  and  _453
REMARK  188  A    between atoms: _452  and  _455
REMARK  189  A    between atoms: _455  and  _456
REMARK  190  A    between atoms: _461  and  _463
REMARK  191  A    between atoms: _463  and  _464
REMARK  192  A    between atoms: _463  and  _466
REMARK  193  A    between atoms: _466  and  _467
REMARK  194  A    between atoms: _469  and  _471
REMARK  195  A    between atoms: _471  and  _472
REMARK  196  A    between atoms: _471  and  _474
REMARK  197  A    between atoms: _474  and  _475
REMARK  198  A    between atoms: _480  and  _482
REMARK  199  A    between atoms: _482  and  _483
REMARK  200  A    between atoms: _482  and  _485
REMARK  201  A    between atoms: _485  and  _486
REMARK  202  A    between atoms: _489  and  _491
REMARK  203  A    between atoms: _491  and  _492
REMARK  204  A    between atoms: _495  and  _497
REMARK  205  A    between atoms: _497  and  _498
REMARK  206  A    between atoms: _497  and  _500
REMARK  207  A    between atoms: _503  and  _505
REMARK  208  A    between atoms: _505  and  _506
REMARK  209  A    between atoms: _505  and  _508
REMARK  210  A    between atoms: _508  and  _509
REMARK  211  A    between atoms: _509  and  _510
REMARK  212  A    between atoms: _510  and  _511
REMARK  213  A    between atoms: _511  and  _512
REMARK  214  A    between atoms: _516  and  _518
REMARK  215  A    between atoms: _518  and  _519
REMARK  216  A    between atoms: _518  and  _521
REMARK  217  A    between atoms: _521  and  _522
REMARK  218  A    between atoms: _525  and  _527
REMARK  219  A    between atoms: _527  and  _528
REMARK  220  A    between atoms: _527  and  _530
REMARK  221  A    between atoms: _530  and  _531
REMARK  222  A    between atoms: _534  and  _536
REMARK  223  A    between atoms: _536  and  _537
REMARK  224  A    between atoms: _536  and  _539
REMARK  225  A    between atoms: _539  and  _540
REMARK  226  A    between atoms: _543  and  _545
REMARK  227  A    between atoms: _545  and  _546
REMARK  228  A    between atoms: _545  and  _548
REMARK  229  A    between atoms: _548  and  _549
REMARK  230  A    between atoms: _555  and  _557
REMARK  231  A    between atoms: _557  and  _558
REMARK  232  A    between atoms: _560  and  _562
REMARK  233  A    between atoms: _562  and  _563
REMARK  234  A    between atoms: _562  and  _565
REMARK  235  A    between atoms: _565  and  _566
REMARK                            x       y       z     vdW  Elec       q    Type
REMARK                         _______ _______ _______ _____ _____    ______ ____
ROOT
ATOM      1  O   HOH     1      42.255  27.310  31.219  0.00  0.00    +0.000 OA
ENDROOT
TORSDOF 0
REMARK  Name = ../refined-set-2016/2zb1/2zb1_pocket.pdb
REMARK  235 active torsions:
REMARK  status: ('A' for Active; 'I' for Inactive)
REMARK    1  A    between atoms: _1  and  _3
REMARK    2  A    between atoms: _3  and  _4
REMARK    3  A    between atoms: _3  and  _6
REMARK    4  A    between atoms: _6  and  _7
REMARK    5  A    between atoms: _17  and  _19
REMARK    6  A    between atoms: _19  and  _20
REMARK    7  A    between atoms: _19  and  _22
REMARK    8  A    between atoms: _25  and  _27
REMARK    9  A    between atoms: _27  and  _28
REMARK   10  A    between atoms: _31  and  _33
REMARK   11  A    between atoms: _33  and  _34
REMARK   12  A    between atoms: _33  and  _36
REMARK   13  A    between atoms: _36  and  _37
REMARK   14  A    between atoms: _42  and  _43
REMARK   15  A    between atoms: _45  and  _47
REMARK   16  A    between atoms: _47  and  _48
REMARK   17  A    between atoms: _50  and  _52
REMARK   18  A    between atoms: _52  and  _53
REMARK   19  A    between atoms: _52  and  _55
REMARK   20  A    between atoms: _55  and  _56
REMARK   21  A    between atoms: _58  and  _60
REMARK   22  A    between atoms: _60  and  _61
REMARK   23  A    between atoms: _60  and  _63
REMARK   24  A    between atoms: _66  and  _68
REMARK   25  A    between atoms: _68  and  _69
REMARK   26  A    between atoms: _68  and  _71
REMARK   27  A    between atoms: _73  and  _75
REMARK   28  A    between atoms: _75  and  _76
REMARK   29  A    between atoms: _79  and  _81
REMARK   30  A    between atoms: _81  and  _82
REMARK   31  A    between atoms: _81  and  _84
REMARK   32  A    between atoms: _84  and  _85
REMARK   33  A    between atoms: _85  and  _86
REMARK   34  A    between atoms: _86  and  _87
REMARK   35  A    between atoms: _96  and  _98
REMARK   36  A    between atoms: _98  and  _99
REMARK   37  A    between atoms: _98  and  _101
REMARK   38  A    between atoms: _104  and  _106
REMARK   39  A    between atoms: _106  and  _107
REMARK   40  A    between atoms: _110  and  _112
REMARK   41  A    between atoms: _112  and  _113
REMARK   42  A    between atoms: _112  and  _115
REMARK   43  A    between atoms: _118  and  _120
REMARK   44  A    between atoms: _120  and  _121
REMARK   45  A    between atoms: _120  and  _123
REMARK   46  A    between atoms: _123  and  _124
REMARK   47  A    between atoms: _124  and  _125
REMARK   48  A    between atoms: _125  and  _126
REMARK   49  A    between atoms: _126  and  _127
REMARK   50  A    between atoms: _131  and  _133
REMARK   51  A    between atoms: _133  and  _134
REMARK   52  A    between atoms: _133  and  _136
REMARK   53  A    between atoms: _136  and  _137
REMARK   54  A    between atoms: _137  and  _138
REMARK   55  A    between atoms: _138  and  _139
REMARK   56  A    between atoms: _139  and  _140
REMARK   57  A    between atoms: _144  and  _146
REMARK   58  A    between atoms: _146  and  _147
REMARK   59  A    between atoms: _146  and  _149
REMARK   60  A    between atoms: _149  and  _150
REMARK   61  A    between atoms: _153  and  _155
REMARK   62  A    between atoms: _155  and  _156
REMARK   63  A    between atoms: _155  and  _158
REMARK   64  A    between atoms: _158  and  _159
REMARK   65  A    between atoms: _159  and  _160
REMARK   66  A    between atoms: _160  and  _161
REMARK   67  A    between atoms: _170  and  _172
REMARK   68  A    between atoms: _172  and  _173
REMARK   69  A    between atoms: _172  and  _175
REMARK   70  A    between atoms: _175  and  _176
REMARK   71  A    between atoms: _176  and  _177
REMARK   72  A    between atoms: _177  and  _178
REMARK   73  A    between atoms: _187  and  _189
REMARK   74  A    between atoms: _189  and  _190
REMARK   75  A    between atoms: _189  and  _192
REMARK   76  A    between atoms: _192  and  _193
REMARK   77  A    between atoms: _193  and  _194
REMARK   78  A    between atoms: _197  and  _199
REMARK   79  A    between atoms: _199  and  _200
REMARK   80  A    between atoms: _199  and  _202
REMARK   81  A    between atoms: _202  and  _203
REMARK   82  A    between atoms: _206  and  _208
REMARK   83  A    between atoms: _208  and  _209
REMARK   84  A    between atoms: _208  and  _211
REMARK   85  A    between atoms: _211  and  _212
REMARK   86  A    between atoms: _212  and  _213
REMARK   87  A    between atoms: _213  and  _214
REMARK   88  A    between atoms: _223  and  _225
REMARK   89  A    between atoms: _225  and  _226
REMARK   90  A    between atoms: _225  and  _228
REMARK   91  A    between atoms: _228  and  _229
REMARK   92  A    between atoms: _232  and  _234
REMARK   93  A    between atoms: _234  and  _235
REMARK   94  A    between atoms: _234  and  _237
REMARK   95  A    between atoms: _237  and  _238
REMARK   96  A    between atoms: _241  and  _243
REMARK   97  A    between atoms: _243  and  _244
REMARK   98  A    between atoms: _243  and  _246
REMARK   99  A    between atoms: _246  and  _247
REMARK  100  A    between atoms: _247  and  _248
REMARK  101  A    between atoms: _248  and  _249
REMARK  102  A    between atoms: _249  and  _250
REMARK  103  A    between atoms: _254  and  _256
REMARK  104  A    between atoms: _256  and  _257
REMARK  105  A    between atoms: _256  and  _259
REMARK  106  A    between atoms: _259  and  _260
REMARK  107  A    between atoms: _260  and  _261
REMARK  108  A    between atoms: _263  and  _265
REMARK  109  A    between atoms: _265  and  _266
REMARK  110  A    between atoms: _265  and  _268
REMARK  111  A    between atoms: _271  and  _273
REMARK  112  A    between atoms: _273  and  _274
REMARK  113  A    between atoms: _273  and  _276
REMARK  114  A    between atoms: _276  and  _277
REMARK  115  A    between atoms: _280  and  _282
REMARK  116  A    between atoms: _282  and  _283
REMARK  117  A    between atoms: _285  and  _287
REMARK  118  A    between atoms: _287  and  _288
REMARK  119  A    between atoms: _287  and  _290
REMARK  120  A    between atoms: _290  and  _291
REMARK  121  A    between atoms: _294  and  _296
REMARK  122  A    between atoms: _296  and  _297
REMARK  123  A    between atoms: _296  and  _299
REMARK  124  A    between atoms: _299  and  _300
REMARK  125  A    between atoms: _303  and  _305
REMARK  126  A    between atoms: _305  and  _306
REMARK  127  A    between atoms: _305  and  _308
REMARK  128  A    between atoms: _308  and  _309
REMARK  129  A    between atoms: _312  and  _314
REMARK  130  A    between atoms: _314  and  _315
REMARK  131  A    between atoms: _314  and  _317
REMARK  132  A    between atoms: _317  and  _318
REMARK  133  A    between atoms: _323  and  _324
REMARK  134  A    between atoms: _326  and  _328
REMARK  135  A    between atoms: _328  and  _329
REMARK  136  A    between atoms: _328  and  _331
REMARK  137  A    between atoms: _331  and  _332
REMARK  138  A    between atoms: _335  and  _337
REMARK  139  A    between atoms: _337  and  _338
REMARK  140  A    between atoms: _337  and  _340
REMARK  141  A    between atoms: _343  and  _345
REMARK  142  A    between atoms: _345  and  _346
REMARK  143  A    between atoms: _345  and  _348
REMARK  144  A    between atoms: _348  and  _349
REMARK  145  A    between atoms: _352  and  _354
REMARK  146  A    between atoms: _354  and  _355
REMARK  147  A    between atoms: _354  and  _357
REMARK  148  A    between atoms: _357  and  _358
REMARK  149  A    between atoms: _363  and  _365
REMARK  150  A    between atoms: _365  and  _366
REMARK  151  A    between atoms: _365  and  _368
REMARK  152  A    between atoms: _368  and  _369
REMARK  153  A    between atoms: _372  and  _374
REMARK  154  A    between atoms: _374  and  _375
REMARK  155  A    between atoms: _374  and  _377
REMARK  156  A    between atoms: _377  and  _378
REMARK  157  A    between atoms: _378  and  _379
REMARK  158  A    between atoms: _381  and  _383
REMARK  159  A    between atoms: _383  and  _384
REMARK  160  A    between atoms: _386  and  _388
REMARK  161  A    between atoms: _388  and  _389
REMARK  162  A    between atoms: _392  and  _394
REMARK  163  A    between atoms: _394  and  _395
REMARK  164  A    between atoms: _394  and  _397
REMARK  165  A    between atoms: _397  and  _398
REMARK  166  A    between atoms: _401  and  _403
REMARK  167  A    between atoms: _403  and  _404
REMARK  168  A    between atoms: _403  and  _406
REMARK  169  A    between atoms: _406  and  _407
REMARK  170  A    between atoms: _410  and  _412
REMARK  171  A    between atoms: _412  and  _413
REMARK  172  A    between atoms: _412  and  _415
REMARK  173  A    between atoms: _415  and  _416
REMARK  174  A    between atoms: _421  and  _423
REMARK  175  A    between atoms: _423  and  _424
REMARK  176  A    between atoms: _423  and  _426
REMARK  177  A    between atoms: _426  and  _427
REMARK  178  A    between atoms: _432  and  _434
REMARK  179  A    between atoms: _434  and  _435
REMARK  180  A    between atoms: _434  and  _437
REMARK  181  A    between atoms: _437  and  _438
REMARK  182  A    between atoms: _441  and  _443
REMARK  183  A    between atoms: _443  and  _444
REMARK  184  A    between atoms: _443  and  _446
REMARK  185  A    between atoms: _446  and  _447
REMARK  186  A    between atoms: _450  and  _452
REMARK  187  A    between atoms: _452  and  _453
REMARK  188  A    between atoms: _452  and  _455
REMARK  189  A    between atoms: _455  and  _456
REMARK  190  A    between atoms: _461  and  _463
REMARK  191  A    between atoms: _463  and  _464
REMARK  192  A    between atoms: _463  and  _466
REMARK  193  A    between atoms: _466  and  _467
REMARK  194  A    between atoms: _469  and  _471
REMARK  195  A    between atoms: _471  and  _472
REMARK  196  A    between atoms: _471  and  _474
REMARK  197  A    between atoms: _474  and  _475
REMARK  198  A    between atoms: _480  and  _482
REMARK  199  A    between atoms: _482  and  _483
REMARK  200  A    between atoms: _482  and  _485
REMARK  201  A    between atoms: _485  and  _486
REMARK  202  A    between atoms: _489  and  _491
REMARK  203  A    between atoms: _491  and  _492
REMARK  204  A    between atoms: _495  and  _497
REMARK  205  A    between atoms: _497  and  _498
REMARK  206  A    between atoms: _497  and  _500
REMARK  207  A    between atoms: _503  and  _505
REMARK  208  A    between atoms: _505  and  _506
REMARK  209  A    between atoms: _505  and  _508
REMARK  210  A    between atoms: _508  and  _509
REMARK  211  A    between atoms: _509  and  _510
REMARK  212  A    between atoms: _510  and  _511
REMARK  213  A    between atoms: _511  and  _512
REMARK  214  A    between atoms: _516  and  _518
REMARK  215  A    between atoms: _518  and  _519
REMARK  216  A    between atoms: _518  and  _521
REMARK  217  A    between atoms: _521  and  _522
REMARK  218  A    between atoms: _525  and  _527
REMARK  219  A    between atoms: _527  and  _528
REMARK  220  A    between atoms: _527  and  _530
REMARK  221  A    between atoms: _530  and  _531
REMARK  222  A    between atoms: _534  and  _536
REMARK  223  A    between atoms: _536  and  _537
REMARK  224  A    between atoms: _536  and  _539
REMARK  225  A    between atoms: _539  and  _540
REMARK  226  A    between atoms: _543  and  _545
REMARK  227  A    between atoms: _545  and  _546
REMARK  228  A    between atoms: _545  and  _548
REMARK  229  A    between atoms: _548  and  _549
REMARK  230  A    between atoms: _555  and  _557
REMARK  231  A    between atoms: _557  and  _558
REMARK  232  A    between atoms: _560  and  _562
REMARK  233  A    between atoms: _562  and  _563
REMARK  234  A    between atoms: _562  and  _565
REMARK  235  A    between atoms: _565  and  _566
REMARK                            x       y       z     vdW  Elec       q    Type
REMARK                         _______ _______ _______ _____ _____    ______ ____
ROOT
ATOM      1  O   HOH     1      44.087  22.447  36.244  0.00  0.00    +0.000 OA
ENDROOT
TORSDOF 0
